 Abaqus/Standard 2024                  DATE 07-Apr-2025 TIME 14:39:32
 SUMMARY OF JOB INFORMATION:
 STEP  INC ATT SEVERE EQUIL TOTAL  TOTAL      STEP       INC OF       DOF    IF
               DISCON ITERS ITERS  TIME/    TIME/LPF    TIME/LPF    MONITOR RIKS
               ITERS               FREQ
   1     1   1U    0     1     1  0.00       0.00       10.00     
   1     1   2     0     1     1  2.85       2.85       2.854     
   1     2   1     0     1     1  5.71       5.71       2.854     
   1     3   1     0     1     1  8.56       8.56       2.854     
   1     4   1     0     1     1  11.4       11.4       2.854     
   1     5   1     0     1     1  14.3       14.3       2.854     
   1     6   1     0     1     1  17.1       17.1       2.854     
   1     7   1     0     1     1  20.0       20.0       2.854     
   1     8   1     0     1     1  22.8       22.8       2.854     
   1     9   1     0     1     1  25.7       25.7       2.854     
   1    10   1     0     1     1  28.5       28.5       2.854     
   1    11   1     0     1     1  31.4       31.4       2.854     
   1    12   1     0     1     1  34.3       34.3       2.854     
   1    13   1     0     1     1  37.1       37.1       2.854     
   1    14   1     0     1     1  40.0       40.0       2.854     
   1    15   1     0     1     1  42.8       42.8       2.854     
   1    16   1     0     1     1  45.7       45.7       2.854     
   1    17   1     0     1     1  48.5       48.5       2.854     
   1    18   1     0     1     1  51.4       51.4       2.854     
   1    19   1     0     1     1  54.2       54.2       2.854     
   1    20   1     0     1     1  57.1       57.1       2.854     
   1    21   1     0     1     1  59.9       59.9       2.854     
   1    22   1     0     1     1  62.8       62.8       2.854     
   1    23   1     0     1     1  65.7       65.7       2.854     
   1    24   1     0     1     1  68.5       68.5       2.854     
   1    25   1     0     1     1  71.4       71.4       2.854     
   1    26   1     0     1     1  74.2       74.2       2.854     
   1    27   1     0     1     1  77.1       77.1       2.854     
   1    28   1     0     1     1  79.9       79.9       2.854     
   1    29   1     0     1     1  82.8       82.8       2.854     
   1    30   1     0     1     1  85.6       85.6       2.854     
   1    31   1     0     1     1  88.5       88.5       2.854     
   1    32   1     0     1     1  91.3       91.3       2.854     
   1    33   1     0     1     1  94.2       94.2       2.854     
   1    34   1     0     1     1  97.0       97.0       2.854     
   1    35   1     0     1     1  99.9       99.9       2.854     
   1    36   1     0     1     1  103.       103.       2.854     
   1    37   1     0     1     1  106.       106.       2.854     
   1    38   1     0     1     1  108.       108.       2.854     
   1    39   1     0     1     1  111.       111.       2.854     
   1    40   1     0     1     1  114.       114.       2.854     
   1    41   1     0     1     1  117.       117.       2.854     
   1    42   1     0     1     1  120.       120.       2.854     
   1    43   1     0     1     1  123.       123.       2.854     
   1    44   1     0     1     1  126.       126.       2.854     
   1    45   1     0     1     1  128.       128.       2.854     
   1    46   1     0     1     1  131.       131.       2.854     
   1    47   1     0     1     1  134.       134.       2.854     
   1    48   1     0     1     1  137.       137.       2.854     
   1    49   1     0     1     1  140.       140.       2.854     
   1    50   1     0     1     1  143.       143.       2.854     
   1    51   1     0     1     1  146.       146.       2.854     
   1    52   1     0     1     1  148.       148.       2.854     
   1    53   1     0     1     1  151.       151.       2.854     
   1    54   1     0     1     1  154.       154.       2.854     
   1    55   1     0     1     1  157.       157.       2.854     
   1    56   1     0     1     1  160.       160.       2.854     
   1    57   1     0     1     1  163.       163.       2.854     
   1    58   1     0     1     1  166.       166.       2.854     
   1    59   1     0     1     1  168.       168.       2.854     
   1    60   1     0     1     1  171.       171.       2.854     
   1    61   1     0     1     1  177.       177.       5.479     
   1    62   1     0     1     1  182.       182.       5.479     
   1    63   1     0     1     1  188.       188.       5.479     
   1    64   1     0     1     1  193.       193.       5.479     
   1    65   1     0     1     1  199.       199.       5.479     
   1    66   1     0     1     1  204.       204.       5.479     
   1    67   1     0     1     1  210.       210.       5.479     
   1    68   1     0     1     1  215.       215.       5.479     
   1    69   1     0     1     1  221.       221.       5.479     
   1    70   1     0     1     1  226.       226.       5.479     
   1    71   1     0     1     1  232.       232.       5.479     
   1    72   1     0     1     1  237.       237.       5.479     
   1    73   1     0     1     1  242.       242.       5.479     
   1    74   1     0     1     1  248.       248.       5.479     
   1    75   1     0     1     1  253.       253.       5.479     
   1    76   1     0     1     1  259.       259.       5.479     
   1    77   1     0     1     1  264.       264.       5.479     
   1    78   1     0     1     1  270.       270.       5.479     
   1    79   1     0     1     1  275.       275.       5.479     
   1    80   1     0     1     1  281.       281.       5.479     
   1    81   1     0     1     1  286.       286.       5.479     
   1    82   1     0     1     1  292.       292.       5.479     
   1    83   1     0     1     1  297.       297.       5.479     
   1    84   1     0     1     1  303.       303.       5.479     
   1    85   1     0     1     1  308.       308.       5.479     
   1    86   1     0     1     1  314.       314.       5.479     
   1    87   1     0     1     1  319.       319.       5.479     
   1    88   1     0     1     1  325.       325.       5.479     
   1    89   1     0     1     1  330.       330.       5.479     
   1    90   1     0     1     1  336.       336.       5.479     
   1    91   1     0     1     1  341.       341.       5.479     
   1    92   1     0     1     1  347.       347.       5.479     
   1    93   1     0     1     1  352.       352.       5.479     
   1    94   1     0     1     1  358.       358.       5.479     
   1    95   1     0     1     1  363.       363.       5.479     
   1    96   1     0     1     1  374.       374.       10.57     
   1    97   1     0     1     1  384.       384.       10.57     
   1    98   1     0     1     1  395.       395.       10.57     
   1    99   1     0     1     1  405.       405.       10.57     
   1   100   1     0     1     1  416.       416.       10.57     
   1   101   1     0     1     1  426.       426.       10.57     
   1   102   1     0     1     1  437.       437.       10.57     
   1   103   1     0     1     1  448.       448.       10.57     
   1   104   1     0     1     1  458.       458.       10.57     
   1   105   1     0     1     1  469.       469.       10.57     
   1   106   1     0     1     1  479.       479.       10.57     
   1   107   1     0     1     1  490.       490.       10.57     
   1   108   1     0     1     1  500.       500.       10.57     
   1   109   1     0     1     1  511.       511.       10.57     
   1   110   1     0     1     1  522.       522.       10.57     
   1   111   1     0     1     1  532.       532.       10.57     
   1   112   1     0     1     1  543.       543.       10.57     
   1   113   1     0     1     1  553.       553.       10.57     
   1   114   1     0     1     1  564.       564.       10.57     
   1   115   1     0     1     1  574.       574.       10.57     
   1   116   1     0     1     1  585.       585.       10.57     
   1   117   1     0     1     1  596.       596.       10.57     
   1   118   1     0     1     1  606.       606.       10.57     
   1   119   1     0     1     1  617.       617.       10.57     
   1   120   1     0     1     1  627.       627.       10.57     
   1   121   1     0     1     1  638.       638.       10.57     
   1   122   1     0     1     1  648.       648.       10.57     
   1   123   1     0     1     1  659.       659.       10.57     
   1   124   1     0     1     1  670.       670.       10.57     
   1   125   1     0     1     1  680.       680.       10.57     
   1   126   1     0     1     1  691.       691.       10.57     
   1   127   1     0     1     1  701.       701.       10.57     
   1   128   1     0     1     1  712.       712.       10.57     
   1   129   1     0     1     1  722.       722.       10.57     
   1   130   1     0     1     1  733.       733.       10.57     
   1   131   1     0     1     1  744.       744.       10.57     
   1   132   1     0     1     1  764.       764.       20.28     
   1   133   1     0     1     1  784.       784.       20.28     
   1   134   1     0     1     1  804.       804.       20.28     
   1   135   1     0     1     1  825.       825.       20.28     
   1   136   1     0     1     1  845.       845.       20.28     
   1   137   1     0     1     1  865.       865.       20.28     
   1   138   1     0     1     1  886.       886.       20.28     
   1   139   1     0     1     1  906.       906.       20.28     
   1   140   1     0     1     1  926.       926.       20.28     
   1   141   1     0     1     1  946.       946.       20.28     
   1   142   1     0     1     1  967.       967.       20.28     
   1   143   1     0     1     1  987.       987.       20.28     
   1   144   1     0     1     1  1.01e+03   1.01e+03   20.28     
   1   145   1     0     1     1  1.03e+03   1.03e+03   20.28     
   1   146   1     0     1     1  1.05e+03   1.05e+03   20.28     
   1   147   1     0     1     1  1.07e+03   1.07e+03   20.28     
   1   148   1     0     1     1  1.09e+03   1.09e+03   20.28     
   1   149   1     0     1     1  1.11e+03   1.11e+03   20.28     
   1   150   1     0     1     1  1.13e+03   1.13e+03   20.28     
   1   151   1     0     1     1  1.15e+03   1.15e+03   20.28     
   1   152   1     0     1     1  1.17e+03   1.17e+03   20.28     
   1   153   1     0     1     1  1.19e+03   1.19e+03   20.28     
   1   154   1     0     1     1  1.21e+03   1.21e+03   20.28     
   1   155   1     0     1     1  1.23e+03   1.23e+03   20.28     
   1   156   1     0     1     1  1.25e+03   1.25e+03   20.28     
   1   157   1     0     1     1  1.27e+03   1.27e+03   20.28     
   1   158   1     0     1     1  1.29e+03   1.29e+03   20.28     
   1   159   1     0     1     1  1.31e+03   1.31e+03   20.28     
   1   160   1     0     1     1  1.33e+03   1.33e+03   20.28     
   1   161   1     0     1     1  1.35e+03   1.35e+03   20.28     
   1   162   1     0     1     1  1.37e+03   1.37e+03   20.28     
   1   163   1     0     1     1  1.39e+03   1.39e+03   20.28     
   1   164   1     0     1     1  1.41e+03   1.41e+03   20.28     
   1   165   1     0     1     1  1.45e+03   1.45e+03   38.60     
   1   166   1     0     1     1  1.49e+03   1.49e+03   38.60     
   1   167   1     0     1     1  1.53e+03   1.53e+03   38.60     
   1   168   1     0     1     1  1.57e+03   1.57e+03   38.60     
   1   169   1     0     1     1  1.61e+03   1.61e+03   38.60     
   1   170   1     0     1     1  1.64e+03   1.64e+03   38.60     
   1   171   1     0     1     1  1.68e+03   1.68e+03   38.60     
   1   172   1     0     1     1  1.72e+03   1.72e+03   38.60     
   1   173   1     0     1     1  1.76e+03   1.76e+03   38.60     
   1   174   1     0     1     1  1.80e+03   1.80e+03   38.60     
   1   175   1     0     1     1  1.84e+03   1.84e+03   38.60     
   1   176   1     0     1     1  1.88e+03   1.88e+03   38.60     
   1   177   1     0     1     1  1.91e+03   1.91e+03   38.60     
   1   178   1     0     1     1  1.95e+03   1.95e+03   38.60     
   1   179   1     0     1     1  1.99e+03   1.99e+03   38.60     
   1   180   1     0     1     1  2.03e+03   2.03e+03   38.60     
   1   181   1     0     1     1  2.07e+03   2.07e+03   38.60     
   1   182   1     0     1     1  2.11e+03   2.11e+03   38.60     
   1   183   1     0     1     1  2.15e+03   2.15e+03   38.60     
   1   184   1     0     1     1  2.18e+03   2.18e+03   38.60     
   1   185   1     0     1     1  2.22e+03   2.22e+03   38.60     
   1   186   1     0     1     1  2.26e+03   2.26e+03   38.60     
   1   187   1     0     1     1  2.30e+03   2.30e+03   38.60     
   1   188   1     0     1     1  2.34e+03   2.34e+03   38.60     
   1   189   1     0     1     1  2.38e+03   2.38e+03   38.60     
   1   190   1     0     1     1  2.42e+03   2.42e+03   38.60     
                          
 THE ANALYSIS HAS COMPLETED SUCCESSFULLY
