 Abaqus/Standard 2024                  DATE 07-Apr-2025 TIME 14:37:32
 SUMMARY OF JOB INFORMATION:
 STEP  INC ATT SEVERE EQUIL TOTAL  TOTAL      STEP       INC OF       DOF    IF
               DISCON ITERS ITERS  TIME/    TIME/LPF    TIME/LPF    MONITOR RIKS
               ITERS               FREQ
   1     1   1U    0     1     1  0.00       0.00       10.00     
   1     1   2     0     1     1  2.85       2.85       2.854     
   1     2   1     0     1     1  5.71       5.71       2.854     
   1     3   1     0     1     1  8.56       8.56       2.854     
   1     4   1     0     1     1  11.4       11.4       2.854     
   1     5   1     0     1     1  14.3       14.3       2.854     
   1     6   1     0     1     1  17.1       17.1       2.854     
   1     7   1     0     1     1  20.0       20.0       2.854     
   1     8   1     0     1     1  22.8       22.8       2.854     
   1     9   1     0     1     1  25.7       25.7       2.854     
   1    10   1     0     1     1  28.5       28.5       2.854     
   1    11   1     0     1     1  31.4       31.4       2.854     
   1    12   1     0     1     1  34.3       34.3       2.854     
   1    13   1     0     1     1  37.1       37.1       2.854     
   1    14   1     0     1     1  40.0       40.0       2.854     
   1    15   1     0     1     1  42.8       42.8       2.854     
   1    16   1     0     1     1  45.7       45.7       2.854     
   1    17   1     0     1     1  48.5       48.5       2.854     
   1    18   1     0     1     1  51.4       51.4       2.854     
   1    19   1     0     1     1  54.2       54.2       2.854     
   1    20   1     0     1     1  57.1       57.1       2.854     
   1    21   1     0     1     1  59.9       59.9       2.854     
   1    22   1     0     1     1  62.8       62.8       2.854     
   1    23   1     0     1     1  65.7       65.7       2.854     
   1    24   1     0     1     1  68.5       68.5       2.854     
   1    25   1     0     1     1  71.4       71.4       2.854     
   1    26   1     0     1     1  74.2       74.2       2.854     
   1    27   1     0     1     1  77.1       77.1       2.854     
   1    28   1     0     1     1  79.9       79.9       2.854     
   1    29   1     0     1     1  82.8       82.8       2.854     
   1    30   1     0     1     1  85.6       85.6       2.854     
   1    31   1     0     1     1  88.5       88.5       2.854     
   1    32   1     0     1     1  91.3       91.3       2.854     
   1    33   1     0     1     1  94.2       94.2       2.854     
   1    34   1     0     1     1  97.0       97.0       2.854     
   1    35   1     0     1     1  99.9       99.9       2.854     
   1    36   1     0     1     1  103.       103.       2.854     
   1    37   1     0     1     1  106.       106.       2.854     
   1    38   1     0     1     1  108.       108.       2.854     
   1    39   1     0     1     1  111.       111.       2.854     
   1    40   1     0     1     1  114.       114.       2.854     
   1    41   1     0     1     1  117.       117.       2.854     
   1    42   1     0     1     1  120.       120.       2.854     
   1    43   1     0     1     1  123.       123.       2.854     
   1    44   1     0     1     1  126.       126.       2.854     
   1    45   1     0     1     1  128.       128.       2.854     
   1    46   1     0     1     1  131.       131.       2.854     
   1    47   1     0     1     1  134.       134.       2.854     
   1    48   1     0     1     1  137.       137.       2.854     
   1    49   1     0     1     1  140.       140.       2.854     
   1    50   1     0     1     1  143.       143.       2.854     
   1    51   1     0     1     1  146.       146.       2.854     
   1    52   1     0     1     1  148.       148.       2.854     
   1    53   1     0     1     1  151.       151.       2.854     
   1    54   1     0     1     1  154.       154.       2.854     
   1    55   1     0     1     1  157.       157.       2.854     
   1    56   1     0     1     1  160.       160.       2.854     
   1    57   1     0     1     1  163.       163.       2.854     
   1    58   1     0     1     1  166.       166.       2.854     
   1    59   1     0     1     1  168.       168.       2.854     
   1    60   1     0     1     1  171.       171.       2.854     
   1    61   1     0     1     1  177.       177.       5.479     
   1    62   1     0     1     1  182.       182.       5.479     
   1    63   1     0     1     1  188.       188.       5.479     
   1    64   1     0     1     1  193.       193.       5.479     
   1    65   1     0     1     1  199.       199.       5.479     
   1    66   1     0     1     1  204.       204.       5.479     
   1    67   1     0     1     1  210.       210.       5.479     
   1    68   1     0     1     1  215.       215.       5.479     
                          
 THE ANALYSIS HAS COMPLETED SUCCESSFULLY
