 Abaqus/Standard 2024                  DATE 07-Apr-2025 TIME 14:42:58
 SUMMARY OF JOB INFORMATION:
 STEP  INC ATT SEVERE EQUIL TOTAL  TOTAL      STEP       INC OF       DOF    IF
               DISCON ITERS ITERS  TIME/    TIME/LPF    TIME/LPF    MONITOR RIKS
               ITERS               FREQ
   1     1   1U    0     1     1  0.00       0.00       10.00     
   1     1   2     0     1     1  2.85       2.85       2.854     
   1     2   1     0     1     1  5.71       5.71       2.854     
   1     3   1     0     1     1  8.56       8.56       2.854     
   1     4   1     0     1     1  11.4       11.4       2.854     
   1     5   1     0     1     1  14.3       14.3       2.854     
   1     6   1     0     1     1  17.1       17.1       2.854     
   1     7   1     0     1     1  20.0       20.0       2.854     
   1     8   1     0     1     1  22.8       22.8       2.854     
   1     9   1     0     1     1  25.7       25.7       2.854     
   1    10   1     0     1     1  28.5       28.5       2.854     
   1    11   1     0     1     1  31.4       31.4       2.854     
   1    12   1     0     1     1  34.3       34.3       2.854     
   1    13   1     0     1     1  37.1       37.1       2.854     
   1    14   1     0     1     1  40.0       40.0       2.854     
   1    15   1     0     1     1  42.8       42.8       2.854     
   1    16   1     0     1     1  45.7       45.7       2.854     
   1    17   1     0     1     1  48.5       48.5       2.854     
   1    18   1     0     1     1  51.4       51.4       2.854     
   1    19   1     0     1     1  54.2       54.2       2.854     
   1    20   1     0     1     1  57.1       57.1       2.854     
   1    21   1     0     1     1  59.9       59.9       2.854     
   1    22   1     0     1     1  62.8       62.8       2.854     
   1    23   1     0     1     1  65.7       65.7       2.854     
   1    24   1     0     1     1  68.5       68.5       2.854     
   1    25   1     0     1     1  71.4       71.4       2.854     
   1    26   1     0     1     1  74.2       74.2       2.854     
   1    27   1     0     1     1  77.1       77.1       2.854     
   1    28   1     0     1     1  79.9       79.9       2.854     
   1    29   1     0     1     1  82.8       82.8       2.854     
   1    30   1     0     1     1  85.6       85.6       2.854     
   1    31   1     0     1     1  88.5       88.5       2.854     
   1    32   1     0     1     1  91.3       91.3       2.854     
   1    33   1     0     1     1  94.2       94.2       2.854     
   1    34   1     0     1     1  97.0       97.0       2.854     
   1    35   1     0     1     1  99.9       99.9       2.854     
   1    36   1     0     1     1  103.       103.       2.854     
   1    37   1     0     1     1  106.       106.       2.854     
   1    38   1     0     1     1  108.       108.       2.854     
   1    39   1     0     1     1  111.       111.       2.854     
   1    40   1     0     1     1  114.       114.       2.854     
   1    41   1     0     1     1  117.       117.       2.854     
   1    42   1     0     1     1  120.       120.       2.854     
   1    43   1     0     1     1  123.       123.       2.854     
   1    44   1     0     1     1  126.       126.       2.854     
   1    45   1     0     1     1  128.       128.       2.854     
   1    46   1     0     1     1  131.       131.       2.854     
   1    47   1     0     1     1  134.       134.       2.854     
   1    48   1     0     1     1  137.       137.       2.854     
   1    49   1     0     1     1  140.       140.       2.854     
   1    50   1     0     1     1  143.       143.       2.854     
   1    51   1     0     1     1  146.       146.       2.854     
   1    52   1     0     1     1  148.       148.       2.854     
   1    53   1     0     1     1  151.       151.       2.854     
   1    54   1     0     1     1  154.       154.       2.854     
   1    55   1     0     1     1  157.       157.       2.854     
   1    56   1     0     1     1  160.       160.       2.854     
   1    57   1     0     1     1  163.       163.       2.854     
   1    58   1     0     1     1  166.       166.       2.854     
   1    59   1     0     1     1  168.       168.       2.854     
   1    60   1     0     1     1  171.       171.       2.854     
   1    61   1     0     1     1  177.       177.       5.479     
   1    62   1     0     1     1  182.       182.       5.479     
   1    63   1     0     1     1  188.       188.       5.479     
   1    64   1     0     1     1  193.       193.       5.479     
   1    65   1     0     1     1  199.       199.       5.479     
   1    66   1     0     1     1  204.       204.       5.479     
   1    67   1     0     1     1  210.       210.       5.479     
   1    68   1     0     1     1  215.       215.       5.479     
   1    69   1     0     1     1  221.       221.       5.479     
   1    70   1     0     1     1  226.       226.       5.479     
   1    71   1     0     1     1  232.       232.       5.479     
   1    72   1     0     1     1  237.       237.       5.479     
   1    73   1     0     1     1  242.       242.       5.479     
   1    74   1     0     1     1  248.       248.       5.479     
   1    75   1     0     1     1  253.       253.       5.479     
   1    76   1     0     1     1  259.       259.       5.479     
   1    77   1     0     1     1  264.       264.       5.479     
   1    78   1     0     1     1  270.       270.       5.479     
   1    79   1     0     1     1  275.       275.       5.479     
   1    80   1     0     1     1  281.       281.       5.479     
   1    81   1     0     1     1  286.       286.       5.479     
   1    82   1     0     1     1  292.       292.       5.479     
   1    83   1     0     1     1  297.       297.       5.479     
   1    84   1     0     1     1  303.       303.       5.479     
   1    85   1     0     1     1  308.       308.       5.479     
   1    86   1     0     1     1  314.       314.       5.479     
   1    87   1     0     1     1  319.       319.       5.479     
   1    88   1     0     1     1  325.       325.       5.479     
   1    89   1     0     1     1  330.       330.       5.479     
   1    90   1     0     1     1  336.       336.       5.479     
   1    91   1     0     1     1  341.       341.       5.479     
   1    92   1     0     1     1  347.       347.       5.479     
   1    93   1     0     1     1  352.       352.       5.479     
   1    94   1     0     1     1  358.       358.       5.479     
   1    95   1     0     1     1  363.       363.       5.479     
   1    96   1     0     1     1  374.       374.       10.57     
   1    97   1     0     1     1  384.       384.       10.57     
   1    98   1     0     1     1  395.       395.       10.57     
   1    99   1     0     1     1  405.       405.       10.57     
   1   100   1     0     1     1  416.       416.       10.57     
   1   101   1     0     1     1  426.       426.       10.57     
   1   102   1     0     1     1  437.       437.       10.57     
   1   103   1     0     1     1  448.       448.       10.57     
   1   104   1     0     1     1  458.       458.       10.57     
   1   105   1     0     1     1  469.       469.       10.57     
   1   106   1     0     1     1  479.       479.       10.57     
   1   107   1     0     1     1  490.       490.       10.57     
   1   108   1     0     1     1  500.       500.       10.57     
   1   109   1     0     1     1  511.       511.       10.57     
   1   110   1     0     1     1  522.       522.       10.57     
   1   111   1     0     1     1  532.       532.       10.57     
   1   112   1     0     1     1  543.       543.       10.57     
   1   113   1     0     1     1  553.       553.       10.57     
   1   114   1     0     1     1  564.       564.       10.57     
   1   115   1     0     1     1  574.       574.       10.57     
   1   116   1     0     1     1  585.       585.       10.57     
   1   117   1     0     1     1  596.       596.       10.57     
   1   118   1     0     1     1  606.       606.       10.57     
   1   119   1     0     1     1  617.       617.       10.57     
   1   120   1     0     1     1  627.       627.       10.57     
   1   121   1     0     1     1  638.       638.       10.57     
   1   122   1     0     1     1  648.       648.       10.57     
   1   123   1     0     1     1  659.       659.       10.57     
   1   124   1     0     1     1  670.       670.       10.57     
   1   125   1     0     1     1  680.       680.       10.57     
   1   126   1     0     1     1  691.       691.       10.57     
   1   127   1     0     1     1  701.       701.       10.57     
   1   128   1     0     1     1  712.       712.       10.57     
   1   129   1     0     1     1  722.       722.       10.57     
   1   130   1     0     1     1  733.       733.       10.57     
   1   131   1     0     1     1  744.       744.       10.57     
   1   132   1     0     1     1  764.       764.       20.28     
   1   133   1     0     1     1  784.       784.       20.28     
   1   134   1     0     1     1  804.       804.       20.28     
   1   135   1     0     1     1  825.       825.       20.28     
   1   136   1     0     1     1  845.       845.       20.28     
   1   137   1     0     1     1  865.       865.       20.28     
   1   138   1     0     1     1  886.       886.       20.28     
   1   139   1     0     1     1  906.       906.       20.28     
   1   140   1     0     1     1  926.       926.       20.28     
   1   141   1     0     1     1  946.       946.       20.28     
   1   142   1     0     1     1  967.       967.       20.28     
   1   143   1     0     1     1  987.       987.       20.28     
   1   144   1     0     1     1  1.01e+03   1.01e+03   20.28     
   1   145   1     0     1     1  1.03e+03   1.03e+03   20.28     
   1   146   1     0     1     1  1.05e+03   1.05e+03   20.28     
   1   147   1     0     1     1  1.07e+03   1.07e+03   20.28     
   1   148   1     0     1     1  1.09e+03   1.09e+03   20.28     
   1   149   1     0     1     1  1.11e+03   1.11e+03   20.28     
   1   150   1     0     1     1  1.13e+03   1.13e+03   20.28     
   1   151   1     0     1     1  1.15e+03   1.15e+03   20.28     
   1   152   1     0     1     1  1.17e+03   1.17e+03   20.28     
   1   153   1     0     1     1  1.19e+03   1.19e+03   20.28     
   1   154   1     0     1     1  1.21e+03   1.21e+03   20.28     
   1   155   1     0     1     1  1.23e+03   1.23e+03   20.28     
   1   156   1     0     1     1  1.25e+03   1.25e+03   20.28     
   1   157   1     0     1     1  1.27e+03   1.27e+03   20.28     
   1   158   1     0     1     1  1.29e+03   1.29e+03   20.28     
   1   159   1     0     1     1  1.31e+03   1.31e+03   20.28     
   1   160   1     0     1     1  1.33e+03   1.33e+03   20.28     
   1   161   1     0     1     1  1.35e+03   1.35e+03   20.28     
   1   162   1     0     1     1  1.37e+03   1.37e+03   20.28     
   1   163   1     0     1     1  1.39e+03   1.39e+03   20.28     
   1   164   1     0     1     1  1.41e+03   1.41e+03   20.28     
   1   165   1     0     1     1  1.45e+03   1.45e+03   38.60     
   1   166   1     0     1     1  1.49e+03   1.49e+03   38.60     
   1   167   1     0     1     1  1.53e+03   1.53e+03   38.60     
   1   168   1     0     1     1  1.57e+03   1.57e+03   38.60     
   1   169   1     0     1     1  1.61e+03   1.61e+03   38.60     
   1   170   1     0     1     1  1.64e+03   1.64e+03   38.60     
   1   171   1     0     1     1  1.68e+03   1.68e+03   38.60     
   1   172   1     0     1     1  1.72e+03   1.72e+03   38.60     
   1   173   1     0     1     1  1.76e+03   1.76e+03   38.60     
   1   174   1     0     1     1  1.80e+03   1.80e+03   38.60     
   1   175   1     0     1     1  1.84e+03   1.84e+03   38.60     
   1   176   1     0     1     1  1.88e+03   1.88e+03   38.60     
   1   177   1     0     1     1  1.91e+03   1.91e+03   38.60     
   1   178   1     0     1     1  1.95e+03   1.95e+03   38.60     
   1   179   1     0     1     1  1.99e+03   1.99e+03   38.60     
   1   180   1     0     1     1  2.03e+03   2.03e+03   38.60     
   1   181   1     0     1     1  2.07e+03   2.07e+03   38.60     
   1   182   1     0     1     1  2.11e+03   2.11e+03   38.60     
   1   183   1     0     1     1  2.15e+03   2.15e+03   38.60     
   1   184   1     0     1     1  2.18e+03   2.18e+03   38.60     
   1   185   1     0     1     1  2.22e+03   2.22e+03   38.60     
   1   186   1     0     1     1  2.26e+03   2.26e+03   38.60     
   1   187   1     0     1     1  2.30e+03   2.30e+03   38.60     
   1   188   1     0     1     1  2.34e+03   2.34e+03   38.60     
   1   189   1     0     1     1  2.38e+03   2.38e+03   38.60     
   1   190   1     0     1     1  2.42e+03   2.42e+03   38.60     
   1   191   1     0     1     1  2.46e+03   2.46e+03   38.60     
   1   192   1     0     1     1  2.49e+03   2.49e+03   38.60     
   1   193   1     0     1     1  2.53e+03   2.53e+03   38.60     
   1   194   1     0     1     1  2.57e+03   2.57e+03   38.60     
   1   195   1     0     1     1  2.61e+03   2.61e+03   38.60     
   1   196   1     0     1     1  2.65e+03   2.65e+03   38.60     
   1   197   1     0     1     1  2.69e+03   2.69e+03   38.60     
   1   198   1     0     1     1  2.73e+03   2.73e+03   38.60     
   1   199   1     0     1     1  2.76e+03   2.76e+03   38.60     
   1   200   1     0     1     1  2.84e+03   2.84e+03   73.77     
   1   201   1     0     1     1  2.91e+03   2.91e+03   73.77     
   1   202   1     0     1     1  2.99e+03   2.99e+03   73.77     
   1   203   1     0     1     1  3.06e+03   3.06e+03   73.77     
   1   204   1     0     1     1  3.13e+03   3.13e+03   73.77     
   1   205   1     0     1     1  3.21e+03   3.21e+03   73.77     
   1   206   1     0     1     1  3.28e+03   3.28e+03   73.77     
   1   207   1     0     1     1  3.35e+03   3.35e+03   73.77     
   1   208   1     0     1     1  3.43e+03   3.43e+03   73.77     
   1   209   1     0     1     1  3.50e+03   3.50e+03   73.77     
   1   210   1     0     1     1  3.58e+03   3.58e+03   73.77     
   1   211   1     0     1     1  3.65e+03   3.65e+03   73.77     
   1   212   1     0     1     1  3.72e+03   3.72e+03   73.77     
   1   213   1     0     1     1  3.80e+03   3.80e+03   73.77     
   1   214   1     0     1     1  3.90e+03   3.90e+03   100.0     
   1   215   1     0     1     1  4.00e+03   4.00e+03   100.0     
   1   216   1     0     1     1  4.10e+03   4.10e+03   100.0     
   1   217   1     0     1     1  4.20e+03   4.20e+03   100.0     
   1   218   1     0     1     1  4.30e+03   4.30e+03   100.0     
   1   219   1     0     1     1  4.40e+03   4.40e+03   100.0     
   1   220   1     0     1     1  4.50e+03   4.50e+03   100.0     
   1   221   1     0     1     1  4.60e+03   4.60e+03   100.0     
   1   222   1     0     1     1  4.70e+03   4.70e+03   100.0     
   1   223   1     0     1     1  4.80e+03   4.80e+03   100.0     
   1   224   1     0     1     1  4.90e+03   4.90e+03   100.0     
   1   225   1     0     1     1  5.00e+03   5.00e+03   100.0     
   1   226   1     0     1     1  5.10e+03   5.10e+03   100.0     
   1   227   1     0     1     1  5.20e+03   5.20e+03   100.0     
   1   228   1     0     1     1  5.30e+03   5.30e+03   100.0     
   1   229   1     0     1     1  5.40e+03   5.40e+03   100.0     
   1   230   1     0     1     1  5.50e+03   5.50e+03   100.0     
   1   231   1     0     1     1  5.60e+03   5.60e+03   100.0     
   1   232   1     0     1     1  5.70e+03   5.70e+03   100.0     
   1   233   1     0     1     1  5.80e+03   5.80e+03   100.0     
   1   234   1     0     1     1  5.90e+03   5.90e+03   100.0     
   1   235   1     0     1     1  6.00e+03   6.00e+03   100.0     
   1   236   1     0     1     1  6.10e+03   6.10e+03   100.0     
   1   237   1     0     1     1  6.20e+03   6.20e+03   100.0     
   1   238   1     0     1     1  6.30e+03   6.30e+03   100.0     
   1   239   1     0     1     1  6.40e+03   6.40e+03   100.0     
   1   240   1     0     1     1  6.50e+03   6.50e+03   100.0     
   1   241   1     0     1     1  6.60e+03   6.60e+03   100.0     
   1   242   1     0     1     1  6.70e+03   6.70e+03   100.0     
   1   243   1     0     1     1  6.80e+03   6.80e+03   100.0     
   1   244   1     0     1     1  6.90e+03   6.90e+03   100.0     
   1   245   1     0     1     1  7.00e+03   7.00e+03   100.0     
   1   246   1     0     1     1  7.10e+03   7.10e+03   100.0     
   1   247   1     0     1     1  7.20e+03   7.20e+03   100.0     
   1   248   1     0     1     1  7.30e+03   7.30e+03   100.0     
   1   249   1     0     1     1  7.40e+03   7.40e+03   100.0     
   1   250   1     0     1     1  7.50e+03   7.50e+03   100.0     
   1   251   1     0     1     1  7.60e+03   7.60e+03   100.0     
   1   252   1     0     1     1  7.70e+03   7.70e+03   100.0     
   1   253   1     0     1     1  7.80e+03   7.80e+03   100.0     
   1   254   1     0     1     1  7.90e+03   7.90e+03   100.0     
   1   255   1     0     1     1  8.00e+03   8.00e+03   100.0     
   1   256   1     0     1     1  8.10e+03   8.10e+03   100.0     
   1   257   1     0     1     1  8.20e+03   8.20e+03   100.0     
   1   258   1     0     1     1  8.30e+03   8.30e+03   100.0     
   1   259   1     0     1     1  8.40e+03   8.40e+03   100.0     
   1   260   1     0     1     1  8.50e+03   8.50e+03   100.0     
   1   261   1     0     1     1  8.60e+03   8.60e+03   100.0     
   1   262   1     0     1     1  8.70e+03   8.70e+03   100.0     
   1   263   1     0     1     1  8.80e+03   8.80e+03   100.0     
   1   264   1     0     1     1  8.90e+03   8.90e+03   100.0     
   1   265   1     0     1     1  9.00e+03   9.00e+03   100.0     
   1   266   1     0     1     1  9.10e+03   9.10e+03   100.0     
   1   267   1     0     1     1  9.20e+03   9.20e+03   100.0     
   1   268   1     0     1     1  9.30e+03   9.30e+03   100.0     
   1   269   1     0     1     1  9.40e+03   9.40e+03   100.0     
   1   270   1     0     1     1  9.50e+03   9.50e+03   100.0     
   1   271   1     0     1     1  9.60e+03   9.60e+03   100.0     
   1   272   1     0     1     1  9.70e+03   9.70e+03   100.0     
   1   273   1     0     1     1  9.80e+03   9.80e+03   100.0     
   1   274   1     0     1     1  9.90e+03   9.90e+03   100.0     
   1   275   1     0     1     1  1.00e+04   1.00e+04   100.0     
   1   276   1     0     1     1  1.01e+04   1.01e+04   100.0     
   1   277   1     0     1     1  1.02e+04   1.02e+04   100.0     
   1   278   1     0     1     1  1.03e+04   1.03e+04   100.0     
   1   279   1     0     1     1  1.04e+04   1.04e+04   100.0     
   1   280   1     0     1     1  1.05e+04   1.05e+04   100.0     
   1   281   1     0     1     1  1.06e+04   1.06e+04   100.0     
   1   282   1     0     1     1  1.07e+04   1.07e+04   100.0     
   1   283   1     0     1     1  1.08e+04   1.08e+04   100.0     
   1   284   1     0     1     1  1.09e+04   1.09e+04   100.0     
   1   285   1     0     1     1  1.10e+04   1.10e+04   100.0     
   1   286   1     0     1     1  1.11e+04   1.11e+04   100.0     
   1   287   1     0     1     1  1.12e+04   1.12e+04   100.0     
   1   288   1     0     1     1  1.13e+04   1.13e+04   100.0     
   1   289   1     0     1     1  1.14e+04   1.14e+04   100.0     
   1   290   1     0     1     1  1.15e+04   1.15e+04   100.0     
   1   291   1     0     1     1  1.16e+04   1.16e+04   100.0     
   1   292   1     0     1     1  1.17e+04   1.17e+04   100.0     
   1   293   1     0     1     1  1.18e+04   1.18e+04   100.0     
   1   294   1     0     1     1  1.19e+04   1.19e+04   100.0     
   1   295   1     0     1     1  1.20e+04   1.20e+04   100.0     
   1   296   1     0     1     1  1.21e+04   1.21e+04   100.0     
   1   297   1     0     1     1  1.22e+04   1.22e+04   100.0     
   1   298   1     0     1     1  1.23e+04   1.23e+04   100.0     
   1   299   1     0     1     1  1.24e+04   1.24e+04   100.0     
   1   300   1     0     1     1  1.25e+04   1.25e+04   100.0     
   1   301   1     0     1     1  1.26e+04   1.26e+04   100.0     
   1   302   1     0     1     1  1.27e+04   1.27e+04   100.0     
   1   303   1     0     1     1  1.28e+04   1.28e+04   100.0     
   1   304   1     0     1     1  1.29e+04   1.29e+04   100.0     
   1   305   1     0     1     1  1.30e+04   1.30e+04   100.0     
   1   306   1     0     1     1  1.31e+04   1.31e+04   100.0     
   1   307   1     0     1     1  1.32e+04   1.32e+04   100.0     
   1   308   1     0     1     1  1.33e+04   1.33e+04   100.0     
   1   309   1     0     1     1  1.34e+04   1.34e+04   100.0     
   1   310   1     0     1     1  1.35e+04   1.35e+04   100.0     
   1   311   1     0     1     1  1.36e+04   1.36e+04   100.0     
   1   312   1     0     1     1  1.37e+04   1.37e+04   100.0     
   1   313   1     0     1     1  1.38e+04   1.38e+04   100.0     
   1   314   1     0     1     1  1.39e+04   1.39e+04   100.0     
   1   315   1     0     1     1  1.40e+04   1.40e+04   100.0     
   1   316   1     0     1     1  1.41e+04   1.41e+04   100.0     
   1   317   1     0     1     1  1.42e+04   1.42e+04   100.0     
   1   318   1     0     1     1  1.43e+04   1.43e+04   100.0     
   1   319   1     0     1     1  1.44e+04   1.44e+04   100.0     
   1   320   1     0     1     1  1.45e+04   1.45e+04   100.0     
   1   321   1     0     1     1  1.46e+04   1.46e+04   100.0     
   1   322   1     0     1     1  1.47e+04   1.47e+04   100.0     
   1   323   1     0     1     1  1.48e+04   1.48e+04   100.0     
   1   324   1     0     1     1  1.49e+04   1.49e+04   100.0     
   1   325   1     0     1     1  1.50e+04   1.50e+04   100.0     
   1   326   1     0     1     1  1.51e+04   1.51e+04   100.0     
   1   327   1     0     1     1  1.52e+04   1.52e+04   100.0     
   1   328   1     0     1     1  1.53e+04   1.53e+04   100.0     
   1   329   1     0     1     1  1.54e+04   1.54e+04   100.0     
   1   330   1     0     1     1  1.55e+04   1.55e+04   100.0     
   1   331   1     0     1     1  1.56e+04   1.56e+04   100.0     
   1   332   1     0     1     1  1.57e+04   1.57e+04   100.0     
   1   333   1     0     1     1  1.58e+04   1.58e+04   100.0     
   1   334   1     0     1     1  1.59e+04   1.59e+04   100.0     
   1   335   1     0     1     1  1.60e+04   1.60e+04   100.0     
   1   336   1     0     1     1  1.61e+04   1.61e+04   100.0     
   1   337   1     0     1     1  1.62e+04   1.62e+04   100.0     
   1   338   1     0     1     1  1.63e+04   1.63e+04   100.0     
   1   339   1     0     1     1  1.64e+04   1.64e+04   100.0     
   1   340   1     0     1     1  1.65e+04   1.65e+04   100.0     
   1   341   1     0     1     1  1.66e+04   1.66e+04   100.0     
   1   342   1     0     1     1  1.67e+04   1.67e+04   100.0     
   1   343   1     0     1     1  1.68e+04   1.68e+04   100.0     
   1   344   1     0     1     1  1.69e+04   1.69e+04   100.0     
   1   345   1     0     1     1  1.70e+04   1.70e+04   100.0     
   1   346   1     0     1     1  1.71e+04   1.71e+04   100.0     
   1   347   1     0     1     1  1.72e+04   1.72e+04   100.0     
   1   348   1     0     1     1  1.73e+04   1.73e+04   100.0     
   1   349   1     0     1     1  1.74e+04   1.74e+04   100.0     
   1   350   1     0     1     1  1.75e+04   1.75e+04   100.0     
   1   351   1     0     1     1  1.76e+04   1.76e+04   100.0     
   1   352   1     0     1     1  1.77e+04   1.77e+04   100.0     
   1   353   1     0     1     1  1.78e+04   1.78e+04   100.0     
   1   354   1     0     1     1  1.79e+04   1.79e+04   100.0     
   1   355   1     0     1     1  1.80e+04   1.80e+04   100.0     
   1   356   1     0     1     1  1.81e+04   1.81e+04   100.0     
   1   357   1     0     1     1  1.82e+04   1.82e+04   100.0     
   1   358   1     0     1     1  1.83e+04   1.83e+04   100.0     
   1   359   1     0     1     1  1.84e+04   1.84e+04   100.0     
   1   360   1     0     1     1  1.85e+04   1.85e+04   100.0     
   1   361   1     0     1     1  1.86e+04   1.86e+04   100.0     
   1   362   1     0     1     1  1.87e+04   1.87e+04   100.0     
   1   363   1     0     1     1  1.88e+04   1.88e+04   100.0     
   1   364   1     0     1     1  1.89e+04   1.89e+04   100.0     
   1   365   1     0     1     1  1.90e+04   1.90e+04   100.0     
   1   366   1     0     1     1  1.91e+04   1.91e+04   100.0     
   1   367   1     0     1     1  1.92e+04   1.92e+04   100.0     
   1   368   1     0     1     1  1.93e+04   1.93e+04   100.0     
   1   369   1     0     1     1  1.94e+04   1.94e+04   100.0     
   1   370   1     0     1     1  1.95e+04   1.95e+04   100.0     
   1   371   1     0     1     1  1.96e+04   1.96e+04   100.0     
   1   372   1     0     1     1  1.97e+04   1.97e+04   100.0     
   1   373   1     0     1     1  1.98e+04   1.98e+04   100.0     
   1   374   1     0     1     1  1.99e+04   1.99e+04   100.0     
   1   375   1     0     1     1  2.00e+04   2.00e+04   100.0     
   1   376   1     0     1     1  2.01e+04   2.01e+04   100.0     
   1   377   1     0     1     1  2.02e+04   2.02e+04   100.0     
   1   378   1     0     1     1  2.03e+04   2.03e+04   100.0     
   1   379   1     0     1     1  2.04e+04   2.04e+04   100.0     
   1   380   1     0     1     1  2.05e+04   2.05e+04   100.0     
   1   381   1     0     1     1  2.06e+04   2.06e+04   100.0     
   1   382   1     0     1     1  2.07e+04   2.07e+04   100.0     
   1   383   1     0     1     1  2.08e+04   2.08e+04   100.0     
   1   384   1     0     1     1  2.09e+04   2.09e+04   100.0     
   1   385   1     0     1     1  2.10e+04   2.10e+04   100.0     
   1   386   1     0     1     1  2.11e+04   2.11e+04   100.0     
   1   387   1     0     1     1  2.12e+04   2.12e+04   100.0     
   1   388   1     0     1     1  2.13e+04   2.13e+04   100.0     
   1   389   1     0     1     1  2.14e+04   2.14e+04   100.0     
   1   390   1     0     1     1  2.15e+04   2.15e+04   100.0     
   1   391   1     0     1     1  2.16e+04   2.16e+04   100.0     
   1   392   1     0     1     1  2.17e+04   2.17e+04   100.0     
   1   393   1     0     1     1  2.18e+04   2.18e+04   100.0     
   1   394   1     0     1     1  2.19e+04   2.19e+04   100.0     
   1   395   1     0     1     1  2.20e+04   2.20e+04   100.0     
   1   396   1     0     1     1  2.21e+04   2.21e+04   100.0     
   1   397   1     0     1     1  2.22e+04   2.22e+04   100.0     
   1   398   1     0     1     1  2.23e+04   2.23e+04   100.0     
   1   399   1     0     1     1  2.24e+04   2.24e+04   100.0     
   1   400   1     0     1     1  2.25e+04   2.25e+04   100.0     
   1   401   1     0     1     1  2.26e+04   2.26e+04   100.0     
   1   402   1     0     1     1  2.27e+04   2.27e+04   100.0     
   1   403   1     0     1     1  2.28e+04   2.28e+04   100.0     
   1   404   1     0     1     1  2.29e+04   2.29e+04   100.0     
   1   405   1     0     1     1  2.30e+04   2.30e+04   100.0     
   1   406   1     0     1     1  2.31e+04   2.31e+04   100.0     
   1   407   1     0     1     1  2.32e+04   2.32e+04   100.0     
   1   408   1     0     1     1  2.33e+04   2.33e+04   100.0     
   1   409   1     0     1     1  2.34e+04   2.34e+04   100.0     
   1   410   1     0     1     1  2.35e+04   2.35e+04   100.0     
   1   411   1     0     1     1  2.36e+04   2.36e+04   100.0     
   1   412   1     0     1     1  2.37e+04   2.37e+04   100.0     
                          
 THE ANALYSIS HAS COMPLETED SUCCESSFULLY
