1

   Abaqus 2024                                  Date 07-Apr-2025   Time 14:42:57
   For use by RWTH AACHEN UNIVERSITY under license from Dassault Systemes or its subsidiary.

                                                                                 
                                                                                 
 STEP    1     INCREMENT     1     STEP TIME    0.00    


                        S T E P       1     T R A N S I E N T   M A S S   D I F F U S I O N


                                                                                          

     AUTOMATIC TIME CONTROL WITH -
          A SUGGESTED INITIAL TIME INCREMENT OF                 10.0    
          AND A TOTAL TIME PERIOD OF                           1.000E+05
          THE MINIMUM TIME INCREMENT ALLOWED IS                1.000E-05
          THE MAXIMUM TIME INCREMENT ALLOWED IS                 100.    

     THE SIZE OF THE TIME INCREMENT IS CONTROLLED BY -
          THE NORMALIZED CONCENTRATION CHANGE PER INCREMENT NOT EXCEEDING   0.800    

          THE ANALYSIS WILL TERMINATE IF THE NORMALIZED
          CONCENTRATION CHANGE RATE IN AN INCREMENT IS LESS THAN             1.000E-03

 CONVERGENCE TOLERANCE PARAMETERS FOR MASS FLUX
     CRITERION FOR RESIDUAL MASS FLUX FOR A NONLINEAR PROBLEM          5.000E-03
     CRITERION FOR CONCENT. CORRECTION IN A NONLINEAR PROBLEM          1.000E-02
     INITIAL VALUE OF TIME AVERAGE MASS FLUX                           1.000E-02
     AVERAGE MASS FLUX IS TIME AVERAGE MASS FLUX
     ALTERNATE CRIT. FOR RESIDUAL MASS FLUX FOR A NONLINEAR PROBLEM    2.000E-02
     CRITERION FOR ZERO MASS FLUX RELATIVE TO TIME AVRG. MASS FLUX     1.000E-05
     CRITERION FOR RESIDUAL MASS FLUX WHEN THERE IS ZERO FLUX          1.000E-05
     CRITERION FOR CONCENT. CORRECTION WHEN THERE IS ZERO FLUX         1.000E-03
     CRITERION FOR RESIDUAL MASS FLUX FOR A LINEAR INCREMENT           1.000E-08
     FIELD CONVERSION RATIO                                             1.00    
     CRITERION FOR ZERO MASS FLUX REL. TO TIME AVRG. MAX. MASS FLUX    1.000E-05

     VOLUMETRIC STRAIN COMPATIBILITY TOLERANCE FOR HYBRID SOLIDS       1.000E-05
     AXIAL STRAIN COMPATIBILITY TOLERANCE FOR HYBRID BEAMS             1.000E-05
     TRANS. SHEAR STRAIN COMPATIBILITY TOLERANCE FOR HYBRID BEAMS      1.000E-05
     SOFT CONTACT CONSTRAINT COMPATIBILITY TOLERANCE FOR P>P0          5.000E-03
     SOFT CONTACT CONSTRAINT COMPATIBILITY TOLERANCE FOR P=0.0         0.100    
     CONTACT FORCE ERROR TOLERANCE FOR CONVERT SDI=YES                 1.00    
     DISPLACEMENT COMPATIBILITY TOLERANCE FOR DCOUP ELEMENTS           1.000E-05
     ROTATION COMPATIBILITY TOLERANCE FOR DCOUP ELEMENTS               1.000E-05

 EQUILIBRIUM WILL BE CHECKED FOR SEVERE DISCONTINUITY ITERATIONS

 TIME INCREMENTATION CONTROL PARAMETERS:
     FIRST EQUILIBRIUM ITERATION FOR CONSECUTIVE DIVERGENCE CHECK              4
     EQUILIBRIUM ITERATION AT WHICH LOG. CONVERGENCE RATE CHECK BEGINS         8
     EQUILIBRIUM ITERATION AFTER WHICH ALTERNATE RESIDUAL IS USED              9
     MAXIMUM EQUILIBRIUM ITERATIONS ALLOWED                                   16
     EQUILIBRIUM ITERATION COUNT FOR CUT-BACK IN NEXT INCREMENT               10
     MAXIMUM EQUILIB. ITERS IN TWO INCREMENTS FOR TIME INCREMENT INCREASE      4
     MAXIMUM ITERATIONS FOR SEVERE DISCONTINUITIES                            50
     MAXIMUM ATTEMPTS ALLOWED IN AN INCREMENT                                  5
     MAXIMUM DISCON. ITERS IN TWO INCREMENTS FOR TIME INCREMENT INCREASE      50
     MAXIMUM CONTACT AUGMENTATIONS FOR *SURFACE BEHAVIOR,AUGMENTED LAGRANGE   50
     CONSECUTIVE INCS MEETING TIME INTEG. TOL. FOR TIME INC. INCREASE          3
     CUT-BACK FACTOR AFTER DIVERGENCE                                 0.2500    
     CUT-BACK FACTOR FOR TOO SLOW CONVERGENCE                         0.5000    
     CUT-BACK FACTOR AFTER TOO MANY EQUILIBRIUM ITERATIONS            0.7500    
     CUT-BACK FACTOR AFTER TOO MANY SEVERE DISCONTINUITY ITERATIONS   0.2500    
     CUT-BACK FACTOR AFTER PROBLEMS IN ELEMENT ASSEMBLY               0.2500    
     INCREASE FACTOR AFTER TWO INCREMENTS THAT CONVERGE QUICKLY        1.500    
     MAX. TIME INCREMENT INCREASE FACTOR ALLOWED                       1.500    
     MAX. TIME INCREMENT INCREASE FACTOR ALLOWED (DYNAMICS)            1.250    
     MAX. TIME INCREMENT INCREASE FACTOR ALLOWED (DIFFUSION)           2.000    
     MINIMUM TIME INCREMENT RATIO FOR EXTRAPOLATION TO OCCUR          0.1000    
     CUT-BACK FACTOR WHEN TIME INTEGRATION ACCURACY TOL. EXCEEDED     0.8500    
     MAX. RATIO OF TIME INTEG. MEASURE TO TOL. FOR TIME INC. INCREASE 0.7500    
     INCREASE FACTOR FOR TIME INCREMENT WHEN POSSIBLE                 0.8000    
     MIN. TIME INC. INCREASE FACTOR IN LINEAR TRANSIENT PROBLEMS      0.9500    
     MAX. RATIO OF TIME INCREMENT TO STABILITY LIMIT                   1.000    
     FRACTION OF STABILITY LIMIT FOR NEW TIME INCREMENT               0.9500    
     TIME INCREMENT INCREASE FACTOR BEFORE A TIME POINT                1.000    
     GLOBAL STABILIZATION CONTROL IS NOT USED

          PRINT OF INCREMENT NUMBER, TIME, ETC., EVERY    1  INCREMENTS

     THE MAXIMUM NUMBER OF INCREMENTS IN THIS STEP IS                  100000

          UNSYMMETRIC MATRIX STORAGE AND SOLUTION WILL BE USED

     LINEAR EXTRAPOLATION WILL BE USED

     CHARACTERISTIC ELEMENT LENGTH     0.200    

     DETAILS REGARDING ACTUAL SOLUTION WAVEFRONT REQUESTED

     DETAILED OUTPUT OF DIAGNOSTICS TO DATABASE REQUESTED

     PRINT OF INCREMENT NUMBER, TIME, ETC., TO THE MESSAGE FILE EVERY     1  INCREMENTS

     ELEMENT OPERATIONS WILL BE CARRIED OUT IN PARALLEL USING  32 THREADS ON 1 DOMAIN

     PARALLEL CONTACT TRACKING ENABLED


     COLLECTING MODEL CONSTRAINT INFORMATION FOR OVERCONSTRAINT CHECKS

     COLLECTING STEP CONSTRAINT INFORMATION FOR OVERCONSTRAINT CHECKS


  INCREMENT     1 STARTS. ATTEMPT NUMBER  1, TIME INCREMENT   10.0    
 
     INITIAL ELEMENT LOAD BALANCE
            DOMAIN    1     THREAD    NUMBER OF ELEMENTS
                              1            376
                              2            456
                              3            424
                              4            496
                              5            464
                              6            488
                              7            504
                              8            424
                              9            544
                             10            472
                             11            568
                             12            520
                             13            480
                             14            504
                             15            512
                             16            496
                             17            616
                             18            560
                             19            504
                             20            497
                             21            464
                             22            432
                             23            488
                             24            448
                             25            520
                             26            576
                             27            480
                             28            472
                             29            448
                             30            480
                             31            456
                             32            456
 
	UNSYMMETRIC NEW DIRECT SPARSE SOLVER RUNNING ON
 	1 HOST x 1 MPI RANK PER HOST x 32 THREADS PER RANK
        NUMBER OF EQUATIONS:  17576
        NUMBER OF RHS:        1
        NUMBER OF FLOPS:      3.872e+09
        SOLVER ELAPSED TIME:  80ms

               CONVERGENCE CHECKS FOR EQUILIBRIUM ITERATION     1


 AVERAGE MASS FLUX                  1.100E-04   TIME AVG. MASS FLUX   1.100E-04
 LARGEST RESIDUAL MASS FLUX         2.304E-18   AT NODE      10168   DOF 11
   INSTANCE: CUBOID-1                                                                        
 LARGEST INCREMENT OF CONCENT.       100.       AT NODE          1   DOF 11
   INSTANCE: CUBOID-1                                                                        
 LARGEST CORRECTION TO CONCENT.      100.       AT NODE          1   DOF 11
   INSTANCE: CUBOID-1                                                                        
          THE MASS FLUX EQUILIBRIUM RESPONSE WAS LINEAR IN THIS INCREMENT

 MAXIMUM NON-PRESCRIBED INCREMENT IN NORMALIZED CONCENTRATION IS    2.38    
 

 ***NOTE: THE TIME INTEGRATION ACCURACY TOLERANCE HAS BEEN EXCEEDED.


  INCREMENT     1 STARTS. ATTEMPT NUMBER  2, TIME INCREMENT   2.85    
 
	UNSYMMETRIC NEW DIRECT SPARSE SOLVER RUNNING ON
 	1 HOST x 1 MPI RANK PER HOST x 32 THREADS PER RANK
        NUMBER OF EQUATIONS:  17576
        NUMBER OF RHS:        1
        NUMBER OF FLOPS:      3.872e+09
        SOLVER ELAPSED TIME:  69ms

               CONVERGENCE CHECKS FOR EQUILIBRIUM ITERATION     1


 AVERAGE MASS FLUX                  3.603E-04   TIME AVG. MASS FLUX   3.603E-04
 LARGEST RESIDUAL MASS FLUX        -1.789E-18   AT NODE       7471   DOF 11
   INSTANCE: CUBOID-1                                                                        
 LARGEST INCREMENT OF CONCENT.       100.       AT NODE          1   DOF 11
   INSTANCE: CUBOID-1                                                                        
 LARGEST CORRECTION TO CONCENT.      100.       AT NODE          1   DOF 11
   INSTANCE: CUBOID-1                                                                        
          THE MASS FLUX EQUILIBRIUM RESPONSE WAS LINEAR IN THIS INCREMENT

 MAXIMUM NON-PRESCRIBED INCREMENT IN NORMALIZED CONCENTRATION IS   0.704    

 ITERATION SUMMARY FOR THE INCREMENT:   1 TOTAL ITERATIONS, OF WHICH
   0 ARE SEVERE DISCONTINUITY ITERATIONS AND  1 ARE EQUILIBRIUM ITERATIONS.

 TIME INCREMENT COMPLETED   2.85    ,  FRACTION OF STEP COMPLETED  2.854E-05
 STEP TIME COMPLETED        2.85    ,  TOTAL TIME COMPLETED         2.85    


  INCREMENT     2 STARTS. ATTEMPT NUMBER  1, TIME INCREMENT   2.85    
 
	UNSYMMETRIC NEW DIRECT SPARSE SOLVER RUNNING ON
 	1 HOST x 1 MPI RANK PER HOST x 32 THREADS PER RANK
        NUMBER OF EQUATIONS:  17576
        NUMBER OF RHS:        1
        NUMBER OF FLOPS:      3.872e+09
        SOLVER ELAPSED TIME:  69ms

               CONVERGENCE CHECKS FOR EQUILIBRIUM ITERATION     1


 AVERAGE MASS FLUX                  1.000E-05   TIME AVG. MASS FLUX   1.852E-04
 LARGEST RESIDUAL MASS FLUX         7.589E-19   AT NODE      14233   DOF 11
   INSTANCE: CUBOID-1                                                                        
 LARGEST INCREMENT OF CONCENT.      0.694       AT NODE         32   DOF 11
   INSTANCE: CUBOID-1                                                                        
 LARGEST CORRECTION TO CONCENT.     -100.       AT NODE          1   DOF 11
   INSTANCE: CUBOID-1                                                                        
          THE MASS FLUX EQUILIBRIUM RESPONSE WAS LINEAR IN THIS INCREMENT

 MAXIMUM NON-PRESCRIBED INCREMENT IN NORMALIZED CONCENTRATION IS   0.694    

 ITERATION SUMMARY FOR THE INCREMENT:   1 TOTAL ITERATIONS, OF WHICH
   0 ARE SEVERE DISCONTINUITY ITERATIONS AND  1 ARE EQUILIBRIUM ITERATIONS.

 TIME INCREMENT COMPLETED   2.85    ,  FRACTION OF STEP COMPLETED  5.709E-05
 STEP TIME COMPLETED        5.71    ,  TOTAL TIME COMPLETED         5.71    


  INCREMENT     3 STARTS. ATTEMPT NUMBER  1, TIME INCREMENT   2.85    
 
	UNSYMMETRIC NEW DIRECT SPARSE SOLVER RUNNING ON
 	1 HOST x 1 MPI RANK PER HOST x 32 THREADS PER RANK
        NUMBER OF EQUATIONS:  17576
        NUMBER OF RHS:        1
        NUMBER OF FLOPS:      3.872e+09
        SOLVER ELAPSED TIME:  68ms

               CONVERGENCE CHECKS FOR EQUILIBRIUM ITERATION     1


 AVERAGE MASS FLUX                  1.000E-05   TIME AVG. MASS FLUX   1.268E-04
 LARGEST RESIDUAL MASS FLUX         7.047E-19   AT NODE      14904   DOF 11
   INSTANCE: CUBOID-1                                                                        
 LARGEST INCREMENT OF CONCENT.      0.684       AT NODE         32   DOF 11
   INSTANCE: CUBOID-1                                                                        
 LARGEST CORRECTION TO CONCENT.    -9.660E-03   AT NODE       2075   DOF 11
   INSTANCE: CUBOID-1                                                                        
          THE MASS FLUX EQUILIBRIUM RESPONSE WAS LINEAR IN THIS INCREMENT

 MAXIMUM NON-PRESCRIBED INCREMENT IN NORMALIZED CONCENTRATION IS   0.684    

 ITERATION SUMMARY FOR THE INCREMENT:   1 TOTAL ITERATIONS, OF WHICH
   0 ARE SEVERE DISCONTINUITY ITERATIONS AND  1 ARE EQUILIBRIUM ITERATIONS.

 TIME INCREMENT COMPLETED   2.85    ,  FRACTION OF STEP COMPLETED  8.563E-05
 STEP TIME COMPLETED        8.56    ,  TOTAL TIME COMPLETED         8.56    


  INCREMENT     4 STARTS. ATTEMPT NUMBER  1, TIME INCREMENT   2.85    
 
	UNSYMMETRIC NEW DIRECT SPARSE SOLVER RUNNING ON
 	1 HOST x 1 MPI RANK PER HOST x 32 THREADS PER RANK
        NUMBER OF EQUATIONS:  17576
        NUMBER OF RHS:        1
        NUMBER OF FLOPS:      3.872e+09
        SOLVER ELAPSED TIME:  66ms

               CONVERGENCE CHECKS FOR EQUILIBRIUM ITERATION     1


 AVERAGE MASS FLUX                  1.000E-05   TIME AVG. MASS FLUX   9.758E-05
 LARGEST RESIDUAL MASS FLUX         9.216E-19   AT NODE       2740   DOF 11
   INSTANCE: CUBOID-1                                                                        
 LARGEST INCREMENT OF CONCENT.      0.675       AT NODE         32   DOF 11
   INSTANCE: CUBOID-1                                                                        
 LARGEST CORRECTION TO CONCENT.    -9.492E-03   AT NODE       8139   DOF 11
   INSTANCE: CUBOID-1                                                                        
          THE MASS FLUX EQUILIBRIUM RESPONSE WAS LINEAR IN THIS INCREMENT

 MAXIMUM NON-PRESCRIBED INCREMENT IN NORMALIZED CONCENTRATION IS   0.675    

 ITERATION SUMMARY FOR THE INCREMENT:   1 TOTAL ITERATIONS, OF WHICH
   0 ARE SEVERE DISCONTINUITY ITERATIONS AND  1 ARE EQUILIBRIUM ITERATIONS.

 TIME INCREMENT COMPLETED   2.85    ,  FRACTION OF STEP COMPLETED  1.142E-04
 STEP TIME COMPLETED        11.4    ,  TOTAL TIME COMPLETED         11.4    


  INCREMENT     5 STARTS. ATTEMPT NUMBER  1, TIME INCREMENT   2.85    
 
	UNSYMMETRIC NEW DIRECT SPARSE SOLVER RUNNING ON
 	1 HOST x 1 MPI RANK PER HOST x 32 THREADS PER RANK
        NUMBER OF EQUATIONS:  17576
        NUMBER OF RHS:        1
        NUMBER OF FLOPS:      3.872e+09
        SOLVER ELAPSED TIME:  66ms

               CONVERGENCE CHECKS FOR EQUILIBRIUM ITERATION     1


 AVERAGE MASS FLUX                  1.000E-05   TIME AVG. MASS FLUX   8.007E-05
 LARGEST RESIDUAL MASS FLUX        -8.132E-19   AT NODE      13561   DOF 11
   INSTANCE: CUBOID-1                                                                        
 LARGEST INCREMENT OF CONCENT.      0.665       AT NODE         32   DOF 11
   INSTANCE: CUBOID-1                                                                        
 LARGEST CORRECTION TO CONCENT.    -9.328E-03   AT NODE       4089   DOF 11
   INSTANCE: CUBOID-1                                                                        
          THE MASS FLUX EQUILIBRIUM RESPONSE WAS LINEAR IN THIS INCREMENT

 MAXIMUM NON-PRESCRIBED INCREMENT IN NORMALIZED CONCENTRATION IS   0.665    

 ITERATION SUMMARY FOR THE INCREMENT:   1 TOTAL ITERATIONS, OF WHICH
   0 ARE SEVERE DISCONTINUITY ITERATIONS AND  1 ARE EQUILIBRIUM ITERATIONS.

 TIME INCREMENT COMPLETED   2.85    ,  FRACTION OF STEP COMPLETED  1.427E-04
 STEP TIME COMPLETED        14.3    ,  TOTAL TIME COMPLETED         14.3    


  INCREMENT     6 STARTS. ATTEMPT NUMBER  1, TIME INCREMENT   2.85    
 
	UNSYMMETRIC NEW DIRECT SPARSE SOLVER RUNNING ON
 	1 HOST x 1 MPI RANK PER HOST x 32 THREADS PER RANK
        NUMBER OF EQUATIONS:  17576
        NUMBER OF RHS:        1
        NUMBER OF FLOPS:      3.872e+09
        SOLVER ELAPSED TIME:  66ms

               CONVERGENCE CHECKS FOR EQUILIBRIUM ITERATION     1


 AVERAGE MASS FLUX                  1.000E-05   TIME AVG. MASS FLUX   6.839E-05
 LARGEST RESIDUAL MASS FLUX        -7.589E-19   AT NODE      12216   DOF 11
   INSTANCE: CUBOID-1                                                                        
 LARGEST INCREMENT OF CONCENT.      0.656       AT NODE         27   DOF 11
   INSTANCE: CUBOID-1                                                                        
 LARGEST CORRECTION TO CONCENT.    -9.166E-03   AT NODE       5441   DOF 11
   INSTANCE: CUBOID-1                                                                        
          THE MASS FLUX EQUILIBRIUM RESPONSE WAS LINEAR IN THIS INCREMENT

 MAXIMUM NON-PRESCRIBED INCREMENT IN NORMALIZED CONCENTRATION IS   0.656    

 ITERATION SUMMARY FOR THE INCREMENT:   1 TOTAL ITERATIONS, OF WHICH
   0 ARE SEVERE DISCONTINUITY ITERATIONS AND  1 ARE EQUILIBRIUM ITERATIONS.

 TIME INCREMENT COMPLETED   2.85    ,  FRACTION OF STEP COMPLETED  1.713E-04
 STEP TIME COMPLETED        17.1    ,  TOTAL TIME COMPLETED         17.1    


  INCREMENT     7 STARTS. ATTEMPT NUMBER  1, TIME INCREMENT   2.85    
 
	UNSYMMETRIC NEW DIRECT SPARSE SOLVER RUNNING ON
 	1 HOST x 1 MPI RANK PER HOST x 32 THREADS PER RANK
        NUMBER OF EQUATIONS:  17576
        NUMBER OF RHS:        1
        NUMBER OF FLOPS:      3.872e+09
        SOLVER ELAPSED TIME:  68ms

               CONVERGENCE CHECKS FOR EQUILIBRIUM ITERATION     1


 AVERAGE MASS FLUX                  1.000E-05   TIME AVG. MASS FLUX   6.005E-05
 LARGEST RESIDUAL MASS FLUX        -1.572E-18   AT NODE      11525   DOF 11
   INSTANCE: CUBOID-1                                                                        
 LARGEST INCREMENT OF CONCENT.      0.647       AT NODE         39   DOF 11
   INSTANCE: CUBOID-1                                                                        
 LARGEST CORRECTION TO CONCENT.    -9.008E-03   AT NODE         27   DOF 11
   INSTANCE: CUBOID-1                                                                        
          THE MASS FLUX EQUILIBRIUM RESPONSE WAS LINEAR IN THIS INCREMENT

 MAXIMUM NON-PRESCRIBED INCREMENT IN NORMALIZED CONCENTRATION IS   0.647    

 ITERATION SUMMARY FOR THE INCREMENT:   1 TOTAL ITERATIONS, OF WHICH
   0 ARE SEVERE DISCONTINUITY ITERATIONS AND  1 ARE EQUILIBRIUM ITERATIONS.

 TIME INCREMENT COMPLETED   2.85    ,  FRACTION OF STEP COMPLETED  1.998E-04
 STEP TIME COMPLETED        20.0    ,  TOTAL TIME COMPLETED         20.0    


  INCREMENT     8 STARTS. ATTEMPT NUMBER  1, TIME INCREMENT   2.85    
 
	UNSYMMETRIC NEW DIRECT SPARSE SOLVER RUNNING ON
 	1 HOST x 1 MPI RANK PER HOST x 32 THREADS PER RANK
        NUMBER OF EQUATIONS:  17576
        NUMBER OF RHS:        1
        NUMBER OF FLOPS:      3.872e+09
        SOLVER ELAPSED TIME:  69ms

               CONVERGENCE CHECKS FOR EQUILIBRIUM ITERATION     1


 AVERAGE MASS FLUX                  1.000E-05   TIME AVG. MASS FLUX   5.379E-05
 LARGEST RESIDUAL MASS FLUX        -1.301E-18   AT NODE       8163   DOF 11
   INSTANCE: CUBOID-1                                                                        
 LARGEST INCREMENT OF CONCENT.      0.638       AT NODE         32   DOF 11
   INSTANCE: CUBOID-1                                                                        
 LARGEST CORRECTION TO CONCENT.    -8.853E-03   AT NODE      11525   DOF 11
   INSTANCE: CUBOID-1                                                                        
          THE MASS FLUX EQUILIBRIUM RESPONSE WAS LINEAR IN THIS INCREMENT

 MAXIMUM NON-PRESCRIBED INCREMENT IN NORMALIZED CONCENTRATION IS   0.638    

 ITERATION SUMMARY FOR THE INCREMENT:   1 TOTAL ITERATIONS, OF WHICH
   0 ARE SEVERE DISCONTINUITY ITERATIONS AND  1 ARE EQUILIBRIUM ITERATIONS.

 TIME INCREMENT COMPLETED   2.85    ,  FRACTION OF STEP COMPLETED  2.284E-04
 STEP TIME COMPLETED        22.8    ,  TOTAL TIME COMPLETED         22.8    


  INCREMENT     9 STARTS. ATTEMPT NUMBER  1, TIME INCREMENT   2.85    
 
	UNSYMMETRIC NEW DIRECT SPARSE SOLVER RUNNING ON
 	1 HOST x 1 MPI RANK PER HOST x 32 THREADS PER RANK
        NUMBER OF EQUATIONS:  17576
        NUMBER OF RHS:        1
        NUMBER OF FLOPS:      3.872e+09
        SOLVER ELAPSED TIME:  66ms

               CONVERGENCE CHECKS FOR EQUILIBRIUM ITERATION     1


 AVERAGE MASS FLUX                  1.000E-05   TIME AVG. MASS FLUX   4.893E-05
 LARGEST RESIDUAL MASS FLUX        -1.084E-18   AT NODE       5441   DOF 11
   INSTANCE: CUBOID-1                                                                        
 LARGEST INCREMENT OF CONCENT.      0.630       AT NODE         32   DOF 11
   INSTANCE: CUBOID-1                                                                        
 LARGEST CORRECTION TO CONCENT.    -8.701E-03   AT NODE       7488   DOF 11
   INSTANCE: CUBOID-1                                                                        
          THE MASS FLUX EQUILIBRIUM RESPONSE WAS LINEAR IN THIS INCREMENT

 MAXIMUM NON-PRESCRIBED INCREMENT IN NORMALIZED CONCENTRATION IS   0.630    

 ITERATION SUMMARY FOR THE INCREMENT:   1 TOTAL ITERATIONS, OF WHICH
   0 ARE SEVERE DISCONTINUITY ITERATIONS AND  1 ARE EQUILIBRIUM ITERATIONS.

 TIME INCREMENT COMPLETED   2.85    ,  FRACTION OF STEP COMPLETED  2.569E-04
 STEP TIME COMPLETED        25.7    ,  TOTAL TIME COMPLETED         25.7    


  INCREMENT    10 STARTS. ATTEMPT NUMBER  1, TIME INCREMENT   2.85    
 
	UNSYMMETRIC NEW DIRECT SPARSE SOLVER RUNNING ON
 	1 HOST x 1 MPI RANK PER HOST x 32 THREADS PER RANK
        NUMBER OF EQUATIONS:  17576
        NUMBER OF RHS:        1
        NUMBER OF FLOPS:      3.872e+09
        SOLVER ELAPSED TIME:  70ms

               CONVERGENCE CHECKS FOR EQUILIBRIUM ITERATION     1


 AVERAGE MASS FLUX                  7.143E-05   TIME AVG. MASS FLUX   5.118E-05
 LARGEST RESIDUAL MASS FLUX         1.247E-18   AT NODE      10191   DOF 11
   INSTANCE: CUBOID-1                                                                        
 LARGEST INCREMENT OF CONCENT.      0.621       AT NODE         34   DOF 11
   INSTANCE: CUBOID-1                                                                        
 LARGEST CORRECTION TO CONCENT.    -8.551E-03   AT NODE         51   DOF 11
   INSTANCE: CUBOID-1                                                                        
          THE MASS FLUX EQUILIBRIUM RESPONSE WAS LINEAR IN THIS INCREMENT

 MAXIMUM NON-PRESCRIBED INCREMENT IN NORMALIZED CONCENTRATION IS   0.621    

 ITERATION SUMMARY FOR THE INCREMENT:   1 TOTAL ITERATIONS, OF WHICH
   0 ARE SEVERE DISCONTINUITY ITERATIONS AND  1 ARE EQUILIBRIUM ITERATIONS.

 TIME INCREMENT COMPLETED   2.85    ,  FRACTION OF STEP COMPLETED  2.854E-04
 STEP TIME COMPLETED        28.5    ,  TOTAL TIME COMPLETED         28.5    


  INCREMENT    11 STARTS. ATTEMPT NUMBER  1, TIME INCREMENT   2.85    
 
	UNSYMMETRIC NEW DIRECT SPARSE SOLVER RUNNING ON
 	1 HOST x 1 MPI RANK PER HOST x 32 THREADS PER RANK
        NUMBER OF EQUATIONS:  17576
        NUMBER OF RHS:        1
        NUMBER OF FLOPS:      3.872e+09
        SOLVER ELAPSED TIME:  68ms

               CONVERGENCE CHECKS FOR EQUILIBRIUM ITERATION     1


 AVERAGE MASS FLUX                  7.143E-05   TIME AVG. MASS FLUX   5.302E-05
 LARGEST RESIDUAL MASS FLUX         1.301E-18   AT NODE       1399   DOF 11
   INSTANCE: CUBOID-1                                                                        
 LARGEST INCREMENT OF CONCENT.      0.613       AT NODE         35   DOF 11
   INSTANCE: CUBOID-1                                                                        
 LARGEST CORRECTION TO CONCENT.    -8.405E-03   AT NODE         38   DOF 11
   INSTANCE: CUBOID-1                                                                        
          THE MASS FLUX EQUILIBRIUM RESPONSE WAS LINEAR IN THIS INCREMENT

 MAXIMUM NON-PRESCRIBED INCREMENT IN NORMALIZED CONCENTRATION IS   0.613    

 ITERATION SUMMARY FOR THE INCREMENT:   1 TOTAL ITERATIONS, OF WHICH
   0 ARE SEVERE DISCONTINUITY ITERATIONS AND  1 ARE EQUILIBRIUM ITERATIONS.

 TIME INCREMENT COMPLETED   2.85    ,  FRACTION OF STEP COMPLETED  3.140E-04
 STEP TIME COMPLETED        31.4    ,  TOTAL TIME COMPLETED         31.4    


  INCREMENT    12 STARTS. ATTEMPT NUMBER  1, TIME INCREMENT   2.85    
 
	UNSYMMETRIC NEW DIRECT SPARSE SOLVER RUNNING ON
 	1 HOST x 1 MPI RANK PER HOST x 32 THREADS PER RANK
        NUMBER OF EQUATIONS:  17576
        NUMBER OF RHS:        1
        NUMBER OF FLOPS:      3.872e+09
        SOLVER ELAPSED TIME:  73ms

               CONVERGENCE CHECKS FOR EQUILIBRIUM ITERATION     1


 AVERAGE MASS FLUX                  7.142E-05   TIME AVG. MASS FLUX   5.455E-05
 LARGEST RESIDUAL MASS FLUX         1.301E-18   AT NODE       1397   DOF 11
   INSTANCE: CUBOID-1                                                                        
 LARGEST INCREMENT OF CONCENT.      0.604       AT NODE         32   DOF 11
   INSTANCE: CUBOID-1                                                                        
 LARGEST CORRECTION TO CONCENT.    -8.261E-03   AT NODE      16947   DOF 11
   INSTANCE: CUBOID-1                                                                        
          THE MASS FLUX EQUILIBRIUM RESPONSE WAS LINEAR IN THIS INCREMENT

 MAXIMUM NON-PRESCRIBED INCREMENT IN NORMALIZED CONCENTRATION IS   0.604    

 ITERATION SUMMARY FOR THE INCREMENT:   1 TOTAL ITERATIONS, OF WHICH
   0 ARE SEVERE DISCONTINUITY ITERATIONS AND  1 ARE EQUILIBRIUM ITERATIONS.

 TIME INCREMENT COMPLETED   2.85    ,  FRACTION OF STEP COMPLETED  3.425E-04
 STEP TIME COMPLETED        34.3    ,  TOTAL TIME COMPLETED         34.3    


  INCREMENT    13 STARTS. ATTEMPT NUMBER  1, TIME INCREMENT   2.85    
 
	UNSYMMETRIC NEW DIRECT SPARSE SOLVER RUNNING ON
 	1 HOST x 1 MPI RANK PER HOST x 32 THREADS PER RANK
        NUMBER OF EQUATIONS:  17576
        NUMBER OF RHS:        1
        NUMBER OF FLOPS:      3.872e+09
        SOLVER ELAPSED TIME:  68ms

               CONVERGENCE CHECKS FOR EQUILIBRIUM ITERATION     1


 AVERAGE MASS FLUX                  5.556E-05   TIME AVG. MASS FLUX   5.463E-05
 LARGEST RESIDUAL MASS FLUX         1.247E-18   AT NODE      16266   DOF 11
   INSTANCE: CUBOID-1                                                                        
 LARGEST INCREMENT OF CONCENT.      0.596       AT NODE         28   DOF 11
   INSTANCE: CUBOID-1                                                                        
 LARGEST CORRECTION TO CONCENT.    -8.120E-03   AT NODE      16937   DOF 11
   INSTANCE: CUBOID-1                                                                        
          THE MASS FLUX EQUILIBRIUM RESPONSE WAS LINEAR IN THIS INCREMENT

 MAXIMUM NON-PRESCRIBED INCREMENT IN NORMALIZED CONCENTRATION IS   0.596    

 ITERATION SUMMARY FOR THE INCREMENT:   1 TOTAL ITERATIONS, OF WHICH
   0 ARE SEVERE DISCONTINUITY ITERATIONS AND  1 ARE EQUILIBRIUM ITERATIONS.

 TIME INCREMENT COMPLETED   2.85    ,  FRACTION OF STEP COMPLETED  3.711E-04
 STEP TIME COMPLETED        37.1    ,  TOTAL TIME COMPLETED         37.1    


  INCREMENT    14 STARTS. ATTEMPT NUMBER  1, TIME INCREMENT   2.85    
 
	UNSYMMETRIC NEW DIRECT SPARSE SOLVER RUNNING ON
 	1 HOST x 1 MPI RANK PER HOST x 32 THREADS PER RANK
        NUMBER OF EQUATIONS:  17576
        NUMBER OF RHS:        1
        NUMBER OF FLOPS:      3.872e+09
        SOLVER ELAPSED TIME:  67ms

               CONVERGENCE CHECKS FOR EQUILIBRIUM ITERATION     1


 AVERAGE MASS FLUX                  5.556E-05   TIME AVG. MASS FLUX   5.469E-05
 LARGEST RESIDUAL MASS FLUX         2.168E-18   AT NODE      11524   DOF 11
   INSTANCE: CUBOID-1                                                                        
 LARGEST INCREMENT OF CONCENT.      0.588       AT NODE       2731   DOF 11
   INSTANCE: CUBOID-1                                                                        
 LARGEST CORRECTION TO CONCENT.    -7.982E-03   AT NODE        703   DOF 11
   INSTANCE: CUBOID-1                                                                        
          THE MASS FLUX EQUILIBRIUM RESPONSE WAS LINEAR IN THIS INCREMENT

 MAXIMUM NON-PRESCRIBED INCREMENT IN NORMALIZED CONCENTRATION IS   0.588    

 ITERATION SUMMARY FOR THE INCREMENT:   1 TOTAL ITERATIONS, OF WHICH
   0 ARE SEVERE DISCONTINUITY ITERATIONS AND  1 ARE EQUILIBRIUM ITERATIONS.

 TIME INCREMENT COMPLETED   2.85    ,  FRACTION OF STEP COMPLETED  3.996E-04
 STEP TIME COMPLETED        40.0    ,  TOTAL TIME COMPLETED         40.0    


  INCREMENT    15 STARTS. ATTEMPT NUMBER  1, TIME INCREMENT   2.85    
 
	UNSYMMETRIC NEW DIRECT SPARSE SOLVER RUNNING ON
 	1 HOST x 1 MPI RANK PER HOST x 32 THREADS PER RANK
        NUMBER OF EQUATIONS:  17576
        NUMBER OF RHS:        1
        NUMBER OF FLOPS:      3.872e+09
        SOLVER ELAPSED TIME:  68ms

               CONVERGENCE CHECKS FOR EQUILIBRIUM ITERATION     1


 AVERAGE MASS FLUX                  5.556E-05   TIME AVG. MASS FLUX   5.475E-05
 LARGEST RESIDUAL MASS FLUX         2.060E-18   AT NODE       6116   DOF 11
   INSTANCE: CUBOID-1                                                                        
 LARGEST INCREMENT OF CONCENT.      0.580       AT NODE         32   DOF 11
   INSTANCE: CUBOID-1                                                                        
 LARGEST CORRECTION TO CONCENT.    -7.847E-03   AT NODE      16929   DOF 11
   INSTANCE: CUBOID-1                                                                        
          THE MASS FLUX EQUILIBRIUM RESPONSE WAS LINEAR IN THIS INCREMENT

 MAXIMUM NON-PRESCRIBED INCREMENT IN NORMALIZED CONCENTRATION IS   0.580    

 ITERATION SUMMARY FOR THE INCREMENT:   1 TOTAL ITERATIONS, OF WHICH
   0 ARE SEVERE DISCONTINUITY ITERATIONS AND  1 ARE EQUILIBRIUM ITERATIONS.

 TIME INCREMENT COMPLETED   2.85    ,  FRACTION OF STEP COMPLETED  4.282E-04
 STEP TIME COMPLETED        42.8    ,  TOTAL TIME COMPLETED         42.8    


  INCREMENT    16 STARTS. ATTEMPT NUMBER  1, TIME INCREMENT   2.85    
 
	UNSYMMETRIC NEW DIRECT SPARSE SOLVER RUNNING ON
 	1 HOST x 1 MPI RANK PER HOST x 32 THREADS PER RANK
        NUMBER OF EQUATIONS:  17576
        NUMBER OF RHS:        1
        NUMBER OF FLOPS:      3.872e+09
        SOLVER ELAPSED TIME:  68ms

               CONVERGENCE CHECKS FOR EQUILIBRIUM ITERATION     1


 AVERAGE MASS FLUX                  5.556E-05   TIME AVG. MASS FLUX   5.480E-05
 LARGEST RESIDUAL MASS FLUX         2.602E-18   AT NODE       3412   DOF 11
   INSTANCE: CUBOID-1                                                                        
 LARGEST INCREMENT OF CONCENT.      0.573       AT NODE         34   DOF 11
   INSTANCE: CUBOID-1                                                                        
 LARGEST CORRECTION TO CONCENT.    -7.714E-03   AT NODE       2061   DOF 11
   INSTANCE: CUBOID-1                                                                        
          THE MASS FLUX EQUILIBRIUM RESPONSE WAS LINEAR IN THIS INCREMENT

 MAXIMUM NON-PRESCRIBED INCREMENT IN NORMALIZED CONCENTRATION IS   0.573    

 ITERATION SUMMARY FOR THE INCREMENT:   1 TOTAL ITERATIONS, OF WHICH
   0 ARE SEVERE DISCONTINUITY ITERATIONS AND  1 ARE EQUILIBRIUM ITERATIONS.

 TIME INCREMENT COMPLETED   2.85    ,  FRACTION OF STEP COMPLETED  4.567E-04
 STEP TIME COMPLETED        45.7    ,  TOTAL TIME COMPLETED         45.7    


  INCREMENT    17 STARTS. ATTEMPT NUMBER  1, TIME INCREMENT   2.85    
 
	UNSYMMETRIC NEW DIRECT SPARSE SOLVER RUNNING ON
 	1 HOST x 1 MPI RANK PER HOST x 32 THREADS PER RANK
        NUMBER OF EQUATIONS:  17576
        NUMBER OF RHS:        1
        NUMBER OF FLOPS:      3.872e+09
        SOLVER ELAPSED TIME:  69ms

               CONVERGENCE CHECKS FOR EQUILIBRIUM ITERATION     1


 AVERAGE MASS FLUX                  5.556E-05   TIME AVG. MASS FLUX   5.485E-05
 LARGEST RESIDUAL MASS FLUX        -2.494E-18   AT NODE       1393   DOF 11
   INSTANCE: CUBOID-1                                                                        
 LARGEST INCREMENT OF CONCENT.      0.565       AT NODE         30   DOF 11
   INSTANCE: CUBOID-1                                                                        
 LARGEST CORRECTION TO CONCENT.    -7.583E-03   AT NODE         35   DOF 11
   INSTANCE: CUBOID-1                                                                        
          THE MASS FLUX EQUILIBRIUM RESPONSE WAS LINEAR IN THIS INCREMENT

 MAXIMUM NON-PRESCRIBED INCREMENT IN NORMALIZED CONCENTRATION IS   0.565    

 ITERATION SUMMARY FOR THE INCREMENT:   1 TOTAL ITERATIONS, OF WHICH
   0 ARE SEVERE DISCONTINUITY ITERATIONS AND  1 ARE EQUILIBRIUM ITERATIONS.

 TIME INCREMENT COMPLETED   2.85    ,  FRACTION OF STEP COMPLETED  4.852E-04
 STEP TIME COMPLETED        48.5    ,  TOTAL TIME COMPLETED         48.5    


  INCREMENT    18 STARTS. ATTEMPT NUMBER  1, TIME INCREMENT   2.85    
 
	UNSYMMETRIC NEW DIRECT SPARSE SOLVER RUNNING ON
 	1 HOST x 1 MPI RANK PER HOST x 32 THREADS PER RANK
        NUMBER OF EQUATIONS:  17576
        NUMBER OF RHS:        1
        NUMBER OF FLOPS:      3.872e+09
        SOLVER ELAPSED TIME:  68ms

               CONVERGENCE CHECKS FOR EQUILIBRIUM ITERATION     1


 AVERAGE MASS FLUX                  5.556E-05   TIME AVG. MASS FLUX   5.489E-05
 LARGEST RESIDUAL MASS FLUX         2.168E-18   AT NODE       2736   DOF 11
   INSTANCE: CUBOID-1                                                                        
 LARGEST INCREMENT OF CONCENT.      0.558       AT NODE         39   DOF 11
   INSTANCE: CUBOID-1                                                                        
 LARGEST CORRECTION TO CONCENT.    -7.456E-03   AT NODE       1393   DOF 11
   INSTANCE: CUBOID-1                                                                        
          THE MASS FLUX EQUILIBRIUM RESPONSE WAS LINEAR IN THIS INCREMENT

 MAXIMUM NON-PRESCRIBED INCREMENT IN NORMALIZED CONCENTRATION IS   0.558    

 ITERATION SUMMARY FOR THE INCREMENT:   1 TOTAL ITERATIONS, OF WHICH
   0 ARE SEVERE DISCONTINUITY ITERATIONS AND  1 ARE EQUILIBRIUM ITERATIONS.

 TIME INCREMENT COMPLETED   2.85    ,  FRACTION OF STEP COMPLETED  5.138E-04
 STEP TIME COMPLETED        51.4    ,  TOTAL TIME COMPLETED         51.4    


  INCREMENT    19 STARTS. ATTEMPT NUMBER  1, TIME INCREMENT   2.85    
 
	UNSYMMETRIC NEW DIRECT SPARSE SOLVER RUNNING ON
 	1 HOST x 1 MPI RANK PER HOST x 32 THREADS PER RANK
        NUMBER OF EQUATIONS:  17576
        NUMBER OF RHS:        1
        NUMBER OF FLOPS:      3.872e+09
        SOLVER ELAPSED TIME:  70ms

               CONVERGENCE CHECKS FOR EQUILIBRIUM ITERATION     1


 AVERAGE MASS FLUX                  5.556E-05   TIME AVG. MASS FLUX   5.492E-05
 LARGEST RESIDUAL MASS FLUX        -2.168E-18   AT NODE      12201   DOF 11
   INSTANCE: CUBOID-1                                                                        
 LARGEST INCREMENT OF CONCENT.      0.550       AT NODE         34   DOF 11
   INSTANCE: CUBOID-1                                                                        
 LARGEST CORRECTION TO CONCENT.    -7.330E-03   AT NODE         47   DOF 11
   INSTANCE: CUBOID-1                                                                        
          THE MASS FLUX EQUILIBRIUM RESPONSE WAS LINEAR IN THIS INCREMENT

 MAXIMUM NON-PRESCRIBED INCREMENT IN NORMALIZED CONCENTRATION IS   0.550    

 ITERATION SUMMARY FOR THE INCREMENT:   1 TOTAL ITERATIONS, OF WHICH
   0 ARE SEVERE DISCONTINUITY ITERATIONS AND  1 ARE EQUILIBRIUM ITERATIONS.

 TIME INCREMENT COMPLETED   2.85    ,  FRACTION OF STEP COMPLETED  5.423E-04
 STEP TIME COMPLETED        54.2    ,  TOTAL TIME COMPLETED         54.2    


  INCREMENT    20 STARTS. ATTEMPT NUMBER  1, TIME INCREMENT   2.85    
 
	UNSYMMETRIC NEW DIRECT SPARSE SOLVER RUNNING ON
 	1 HOST x 1 MPI RANK PER HOST x 32 THREADS PER RANK
        NUMBER OF EQUATIONS:  17576
        NUMBER OF RHS:        1
        NUMBER OF FLOPS:      3.872e+09
        SOLVER ELAPSED TIME:  66ms

               CONVERGENCE CHECKS FOR EQUILIBRIUM ITERATION     1


 AVERAGE MASS FLUX                  5.556E-05   TIME AVG. MASS FLUX   5.495E-05
 LARGEST RESIDUAL MASS FLUX         2.385E-18   AT NODE       2059   DOF 11
   INSTANCE: CUBOID-1                                                                        
 LARGEST INCREMENT OF CONCENT.      0.543       AT NODE         27   DOF 11
   INSTANCE: CUBOID-1                                                                        
 LARGEST CORRECTION TO CONCENT.    -7.207E-03   AT NODE      16935   DOF 11
   INSTANCE: CUBOID-1                                                                        
          THE MASS FLUX EQUILIBRIUM RESPONSE WAS LINEAR IN THIS INCREMENT

 MAXIMUM NON-PRESCRIBED INCREMENT IN NORMALIZED CONCENTRATION IS   0.543    

 ITERATION SUMMARY FOR THE INCREMENT:   1 TOTAL ITERATIONS, OF WHICH
   0 ARE SEVERE DISCONTINUITY ITERATIONS AND  1 ARE EQUILIBRIUM ITERATIONS.

 TIME INCREMENT COMPLETED   2.85    ,  FRACTION OF STEP COMPLETED  5.709E-04
 STEP TIME COMPLETED        57.1    ,  TOTAL TIME COMPLETED         57.1    


  INCREMENT    21 STARTS. ATTEMPT NUMBER  1, TIME INCREMENT   2.85    
 
	UNSYMMETRIC NEW DIRECT SPARSE SOLVER RUNNING ON
 	1 HOST x 1 MPI RANK PER HOST x 32 THREADS PER RANK
        NUMBER OF EQUATIONS:  17576
        NUMBER OF RHS:        1
        NUMBER OF FLOPS:      3.872e+09
        SOLVER ELAPSED TIME:  77ms

               CONVERGENCE CHECKS FOR EQUILIBRIUM ITERATION     1


 AVERAGE MASS FLUX                  5.556E-05   TIME AVG. MASS FLUX   5.498E-05
 LARGEST RESIDUAL MASS FLUX         2.602E-18   AT NODE       8154   DOF 11
   INSTANCE: CUBOID-1                                                                        
 LARGEST INCREMENT OF CONCENT.      0.536       AT NODE         39   DOF 11
   INSTANCE: CUBOID-1                                                                        
 LARGEST CORRECTION TO CONCENT.    -7.086E-03   AT NODE      12200   DOF 11
   INSTANCE: CUBOID-1                                                                        
          THE MASS FLUX EQUILIBRIUM RESPONSE WAS LINEAR IN THIS INCREMENT

 MAXIMUM NON-PRESCRIBED INCREMENT IN NORMALIZED CONCENTRATION IS   0.536    

 ITERATION SUMMARY FOR THE INCREMENT:   1 TOTAL ITERATIONS, OF WHICH
   0 ARE SEVERE DISCONTINUITY ITERATIONS AND  1 ARE EQUILIBRIUM ITERATIONS.

 TIME INCREMENT COMPLETED   2.85    ,  FRACTION OF STEP COMPLETED  5.994E-04
 STEP TIME COMPLETED        59.9    ,  TOTAL TIME COMPLETED         59.9    


  INCREMENT    22 STARTS. ATTEMPT NUMBER  1, TIME INCREMENT   2.85    
 
	UNSYMMETRIC NEW DIRECT SPARSE SOLVER RUNNING ON
 	1 HOST x 1 MPI RANK PER HOST x 32 THREADS PER RANK
        NUMBER OF EQUATIONS:  17576
        NUMBER OF RHS:        1
        NUMBER OF FLOPS:      3.872e+09
        SOLVER ELAPSED TIME:  69ms

               CONVERGENCE CHECKS FOR EQUILIBRIUM ITERATION     1


 AVERAGE MASS FLUX                  5.555E-05   TIME AVG. MASS FLUX   5.501E-05
 LARGEST RESIDUAL MASS FLUX         2.548E-18   AT NODE       7478   DOF 11
   INSTANCE: CUBOID-1                                                                        
 LARGEST INCREMENT OF CONCENT.      0.529       AT NODE         39   DOF 11
   INSTANCE: CUBOID-1                                                                        
 LARGEST CORRECTION TO CONCENT.    -6.968E-03   AT NODE      14244   DOF 11
   INSTANCE: CUBOID-1                                                                        
          THE MASS FLUX EQUILIBRIUM RESPONSE WAS LINEAR IN THIS INCREMENT

 MAXIMUM NON-PRESCRIBED INCREMENT IN NORMALIZED CONCENTRATION IS   0.529    

 ITERATION SUMMARY FOR THE INCREMENT:   1 TOTAL ITERATIONS, OF WHICH
   0 ARE SEVERE DISCONTINUITY ITERATIONS AND  1 ARE EQUILIBRIUM ITERATIONS.

 TIME INCREMENT COMPLETED   2.85    ,  FRACTION OF STEP COMPLETED  6.280E-04
 STEP TIME COMPLETED        62.8    ,  TOTAL TIME COMPLETED         62.8    


  INCREMENT    23 STARTS. ATTEMPT NUMBER  1, TIME INCREMENT   2.85    
 
	UNSYMMETRIC NEW DIRECT SPARSE SOLVER RUNNING ON
 	1 HOST x 1 MPI RANK PER HOST x 32 THREADS PER RANK
        NUMBER OF EQUATIONS:  17576
        NUMBER OF RHS:        1
        NUMBER OF FLOPS:      3.872e+09
        SOLVER ELAPSED TIME:  68ms

               CONVERGENCE CHECKS FOR EQUILIBRIUM ITERATION     1


 AVERAGE MASS FLUX                  5.555E-05   TIME AVG. MASS FLUX   5.503E-05
 LARGEST RESIDUAL MASS FLUX        -2.439E-18   AT NODE       9507   DOF 11
   INSTANCE: CUBOID-1                                                                        
 LARGEST INCREMENT OF CONCENT.      0.522       AT NODE         43   DOF 11
   INSTANCE: CUBOID-1                                                                        
 LARGEST CORRECTION TO CONCENT.    -6.852E-03   AT NODE      15584   DOF 11
   INSTANCE: CUBOID-1                                                                        
          THE MASS FLUX EQUILIBRIUM RESPONSE WAS LINEAR IN THIS INCREMENT

 MAXIMUM NON-PRESCRIBED INCREMENT IN NORMALIZED CONCENTRATION IS   0.522    

 ITERATION SUMMARY FOR THE INCREMENT:   1 TOTAL ITERATIONS, OF WHICH
   0 ARE SEVERE DISCONTINUITY ITERATIONS AND  1 ARE EQUILIBRIUM ITERATIONS.

 TIME INCREMENT COMPLETED   2.85    ,  FRACTION OF STEP COMPLETED  6.565E-04
 STEP TIME COMPLETED        65.7    ,  TOTAL TIME COMPLETED         65.7    


  INCREMENT    24 STARTS. ATTEMPT NUMBER  1, TIME INCREMENT   2.85    
 
	UNSYMMETRIC NEW DIRECT SPARSE SOLVER RUNNING ON
 	1 HOST x 1 MPI RANK PER HOST x 32 THREADS PER RANK
        NUMBER OF EQUATIONS:  17576
        NUMBER OF RHS:        1
        NUMBER OF FLOPS:      3.872e+09
        SOLVER ELAPSED TIME:  70ms

               CONVERGENCE CHECKS FOR EQUILIBRIUM ITERATION     1


 AVERAGE MASS FLUX                  5.555E-05   TIME AVG. MASS FLUX   5.505E-05
 LARGEST RESIDUAL MASS FLUX         2.141E-18   AT NODE       2743   DOF 11
   INSTANCE: CUBOID-1                                                                        
 LARGEST INCREMENT OF CONCENT.      0.515       AT NODE         32   DOF 11
   INSTANCE: CUBOID-1                                                                        
 LARGEST CORRECTION TO CONCENT.    -6.738E-03   AT NODE      13559   DOF 11
   INSTANCE: CUBOID-1                                                                        
          THE MASS FLUX EQUILIBRIUM RESPONSE WAS LINEAR IN THIS INCREMENT

 MAXIMUM NON-PRESCRIBED INCREMENT IN NORMALIZED CONCENTRATION IS   0.515    

 ITERATION SUMMARY FOR THE INCREMENT:   1 TOTAL ITERATIONS, OF WHICH
   0 ARE SEVERE DISCONTINUITY ITERATIONS AND  1 ARE EQUILIBRIUM ITERATIONS.

 TIME INCREMENT COMPLETED   2.85    ,  FRACTION OF STEP COMPLETED  6.851E-04
 STEP TIME COMPLETED        68.5    ,  TOTAL TIME COMPLETED         68.5    


  INCREMENT    25 STARTS. ATTEMPT NUMBER  1, TIME INCREMENT   2.85    
 
	UNSYMMETRIC NEW DIRECT SPARSE SOLVER RUNNING ON
 	1 HOST x 1 MPI RANK PER HOST x 32 THREADS PER RANK
        NUMBER OF EQUATIONS:  17576
        NUMBER OF RHS:        1
        NUMBER OF FLOPS:      3.872e+09
        SOLVER ELAPSED TIME:  69ms

               CONVERGENCE CHECKS FOR EQUILIBRIUM ITERATION     1


 AVERAGE MASS FLUX                  5.555E-05   TIME AVG. MASS FLUX   5.507E-05
 LARGEST RESIDUAL MASS FLUX         2.602E-18   AT NODE      10182   DOF 11
   INSTANCE: CUBOID-1                                                                        
 LARGEST INCREMENT OF CONCENT.      0.509       AT NODE         45   DOF 11
   INSTANCE: CUBOID-1                                                                        
 LARGEST CORRECTION TO CONCENT.    -6.626E-03   AT NODE         37   DOF 11
   INSTANCE: CUBOID-1                                                                        
          THE MASS FLUX EQUILIBRIUM RESPONSE WAS LINEAR IN THIS INCREMENT

 MAXIMUM NON-PRESCRIBED INCREMENT IN NORMALIZED CONCENTRATION IS   0.509    

 ITERATION SUMMARY FOR THE INCREMENT:   1 TOTAL ITERATIONS, OF WHICH
   0 ARE SEVERE DISCONTINUITY ITERATIONS AND  1 ARE EQUILIBRIUM ITERATIONS.

 TIME INCREMENT COMPLETED   2.85    ,  FRACTION OF STEP COMPLETED  7.136E-04
 STEP TIME COMPLETED        71.4    ,  TOTAL TIME COMPLETED         71.4    


  INCREMENT    26 STARTS. ATTEMPT NUMBER  1, TIME INCREMENT   2.85    
 
	UNSYMMETRIC NEW DIRECT SPARSE SOLVER RUNNING ON
 	1 HOST x 1 MPI RANK PER HOST x 32 THREADS PER RANK
        NUMBER OF EQUATIONS:  17576
        NUMBER OF RHS:        1
        NUMBER OF FLOPS:      3.872e+09
        SOLVER ELAPSED TIME:  71ms

               CONVERGENCE CHECKS FOR EQUILIBRIUM ITERATION     1


 AVERAGE MASS FLUX                  5.555E-05   TIME AVG. MASS FLUX   5.509E-05
 LARGEST RESIDUAL MASS FLUX        -2.467E-18   AT NODE       6117   DOF 11
   INSTANCE: CUBOID-1                                                                        
 LARGEST INCREMENT OF CONCENT.      0.502       AT NODE         32   DOF 11
   INSTANCE: CUBOID-1                                                                        
 LARGEST CORRECTION TO CONCENT.    -6.516E-03   AT NODE       8159   DOF 11
   INSTANCE: CUBOID-1                                                                        
          THE MASS FLUX EQUILIBRIUM RESPONSE WAS LINEAR IN THIS INCREMENT

 MAXIMUM NON-PRESCRIBED INCREMENT IN NORMALIZED CONCENTRATION IS   0.502    

 ITERATION SUMMARY FOR THE INCREMENT:   1 TOTAL ITERATIONS, OF WHICH
   0 ARE SEVERE DISCONTINUITY ITERATIONS AND  1 ARE EQUILIBRIUM ITERATIONS.

 TIME INCREMENT COMPLETED   2.85    ,  FRACTION OF STEP COMPLETED  7.421E-04
 STEP TIME COMPLETED        74.2    ,  TOTAL TIME COMPLETED         74.2    


  INCREMENT    27 STARTS. ATTEMPT NUMBER  1, TIME INCREMENT   2.85    
 
	UNSYMMETRIC NEW DIRECT SPARSE SOLVER RUNNING ON
 	1 HOST x 1 MPI RANK PER HOST x 32 THREADS PER RANK
        NUMBER OF EQUATIONS:  17576
        NUMBER OF RHS:        1
        NUMBER OF FLOPS:      3.872e+09
        SOLVER ELAPSED TIME:  66ms

               CONVERGENCE CHECKS FOR EQUILIBRIUM ITERATION     1


 AVERAGE MASS FLUX                  5.555E-05   TIME AVG. MASS FLUX   5.511E-05
 LARGEST RESIDUAL MASS FLUX        -1.952E-18   AT NODE      10849   DOF 11
   INSTANCE: CUBOID-1                                                                        
 LARGEST INCREMENT OF CONCENT.      0.496       AT NODE         32   DOF 11
   INSTANCE: CUBOID-1                                                                        
 LARGEST CORRECTION TO CONCENT.    -6.409E-03   AT NODE       6117   DOF 11
   INSTANCE: CUBOID-1                                                                        
          THE MASS FLUX EQUILIBRIUM RESPONSE WAS LINEAR IN THIS INCREMENT

 MAXIMUM NON-PRESCRIBED INCREMENT IN NORMALIZED CONCENTRATION IS   0.496    

 ITERATION SUMMARY FOR THE INCREMENT:   1 TOTAL ITERATIONS, OF WHICH
   0 ARE SEVERE DISCONTINUITY ITERATIONS AND  1 ARE EQUILIBRIUM ITERATIONS.

 TIME INCREMENT COMPLETED   2.85    ,  FRACTION OF STEP COMPLETED  7.707E-04
 STEP TIME COMPLETED        77.1    ,  TOTAL TIME COMPLETED         77.1    


  INCREMENT    28 STARTS. ATTEMPT NUMBER  1, TIME INCREMENT   2.85    
 
	UNSYMMETRIC NEW DIRECT SPARSE SOLVER RUNNING ON
 	1 HOST x 1 MPI RANK PER HOST x 32 THREADS PER RANK
        NUMBER OF EQUATIONS:  17576
        NUMBER OF RHS:        1
        NUMBER OF FLOPS:      3.872e+09
        SOLVER ELAPSED TIME:  69ms

               CONVERGENCE CHECKS FOR EQUILIBRIUM ITERATION     1


 AVERAGE MASS FLUX                  5.555E-05   TIME AVG. MASS FLUX   5.512E-05
 LARGEST RESIDUAL MASS FLUX         2.331E-18   AT NODE       3424   DOF 11
   INSTANCE: CUBOID-1                                                                        
 LARGEST INCREMENT OF CONCENT.      0.490       AT NODE         44   DOF 11
   INSTANCE: CUBOID-1                                                                        
 LARGEST CORRECTION TO CONCENT.    -6.303E-03   AT NODE      16950   DOF 11
   INSTANCE: CUBOID-1                                                                        
          THE MASS FLUX EQUILIBRIUM RESPONSE WAS LINEAR IN THIS INCREMENT

 MAXIMUM NON-PRESCRIBED INCREMENT IN NORMALIZED CONCENTRATION IS   0.490    

 ITERATION SUMMARY FOR THE INCREMENT:   1 TOTAL ITERATIONS, OF WHICH
   0 ARE SEVERE DISCONTINUITY ITERATIONS AND  1 ARE EQUILIBRIUM ITERATIONS.

 TIME INCREMENT COMPLETED   2.85    ,  FRACTION OF STEP COMPLETED  7.992E-04
 STEP TIME COMPLETED        79.9    ,  TOTAL TIME COMPLETED         79.9    


  INCREMENT    29 STARTS. ATTEMPT NUMBER  1, TIME INCREMENT   2.85    
 
	UNSYMMETRIC NEW DIRECT SPARSE SOLVER RUNNING ON
 	1 HOST x 1 MPI RANK PER HOST x 32 THREADS PER RANK
        NUMBER OF EQUATIONS:  17576
        NUMBER OF RHS:        1
        NUMBER OF FLOPS:      3.872e+09
        SOLVER ELAPSED TIME:  70ms

               CONVERGENCE CHECKS FOR EQUILIBRIUM ITERATION     1


 AVERAGE MASS FLUX                  5.555E-05   TIME AVG. MASS FLUX   5.514E-05
 LARGEST RESIDUAL MASS FLUX         4.879E-18   AT NODE       9496   DOF 11
   INSTANCE: CUBOID-1                                                                        
 LARGEST INCREMENT OF CONCENT.      0.483       AT NODE         32   DOF 11
   INSTANCE: CUBOID-1                                                                        
 LARGEST CORRECTION TO CONCENT.    -6.199E-03   AT NODE       4774   DOF 11
   INSTANCE: CUBOID-1                                                                        
          THE MASS FLUX EQUILIBRIUM RESPONSE WAS LINEAR IN THIS INCREMENT

 MAXIMUM NON-PRESCRIBED INCREMENT IN NORMALIZED CONCENTRATION IS   0.483    

 ITERATION SUMMARY FOR THE INCREMENT:   1 TOTAL ITERATIONS, OF WHICH
   0 ARE SEVERE DISCONTINUITY ITERATIONS AND  1 ARE EQUILIBRIUM ITERATIONS.

 TIME INCREMENT COMPLETED   2.85    ,  FRACTION OF STEP COMPLETED  8.278E-04
 STEP TIME COMPLETED        82.8    ,  TOTAL TIME COMPLETED         82.8    


  INCREMENT    30 STARTS. ATTEMPT NUMBER  1, TIME INCREMENT   2.85    
 
	UNSYMMETRIC NEW DIRECT SPARSE SOLVER RUNNING ON
 	1 HOST x 1 MPI RANK PER HOST x 32 THREADS PER RANK
        NUMBER OF EQUATIONS:  17576
        NUMBER OF RHS:        1
        NUMBER OF FLOPS:      3.872e+09
        SOLVER ELAPSED TIME:  71ms

               CONVERGENCE CHECKS FOR EQUILIBRIUM ITERATION     1


 AVERAGE MASS FLUX                  4.545E-05   TIME AVG. MASS FLUX   5.482E-05
 LARGEST RESIDUAL MASS FLUX        -4.554E-18   AT NODE       8148   DOF 11
   INSTANCE: CUBOID-1                                                                        
 LARGEST INCREMENT OF CONCENT.      0.477       AT NODE         49   DOF 11
   INSTANCE: CUBOID-1                                                                        
 LARGEST CORRECTION TO CONCENT.    -6.098E-03   AT NODE         43   DOF 11
   INSTANCE: CUBOID-1                                                                        
          THE MASS FLUX EQUILIBRIUM RESPONSE WAS LINEAR IN THIS INCREMENT

 MAXIMUM NON-PRESCRIBED INCREMENT IN NORMALIZED CONCENTRATION IS   0.477    

 ITERATION SUMMARY FOR THE INCREMENT:   1 TOTAL ITERATIONS, OF WHICH
   0 ARE SEVERE DISCONTINUITY ITERATIONS AND  1 ARE EQUILIBRIUM ITERATIONS.

 TIME INCREMENT COMPLETED   2.85    ,  FRACTION OF STEP COMPLETED  8.563E-04
 STEP TIME COMPLETED        85.6    ,  TOTAL TIME COMPLETED         85.6    


  INCREMENT    31 STARTS. ATTEMPT NUMBER  1, TIME INCREMENT   2.85    
 
	UNSYMMETRIC NEW DIRECT SPARSE SOLVER RUNNING ON
 	1 HOST x 1 MPI RANK PER HOST x 32 THREADS PER RANK
        NUMBER OF EQUATIONS:  17576
        NUMBER OF RHS:        1
        NUMBER OF FLOPS:      3.872e+09
        SOLVER ELAPSED TIME:  70ms

               CONVERGENCE CHECKS FOR EQUILIBRIUM ITERATION     1


 AVERAGE MASS FLUX                  4.545E-05   TIME AVG. MASS FLUX   5.451E-05
 LARGEST RESIDUAL MASS FLUX        -4.879E-18   AT NODE       6802   DOF 11
   INSTANCE: CUBOID-1                                                                        
 LARGEST INCREMENT OF CONCENT.      0.471       AT NODE         35   DOF 11
   INSTANCE: CUBOID-1                                                                        
 LARGEST CORRECTION TO CONCENT.    -5.998E-03   AT NODE       8148   DOF 11
   INSTANCE: CUBOID-1                                                                        
          THE MASS FLUX EQUILIBRIUM RESPONSE WAS LINEAR IN THIS INCREMENT

 MAXIMUM NON-PRESCRIBED INCREMENT IN NORMALIZED CONCENTRATION IS   0.471    

 ITERATION SUMMARY FOR THE INCREMENT:   1 TOTAL ITERATIONS, OF WHICH
   0 ARE SEVERE DISCONTINUITY ITERATIONS AND  1 ARE EQUILIBRIUM ITERATIONS.

 TIME INCREMENT COMPLETED   2.85    ,  FRACTION OF STEP COMPLETED  8.849E-04
 STEP TIME COMPLETED        88.5    ,  TOTAL TIME COMPLETED         88.5    


  INCREMENT    32 STARTS. ATTEMPT NUMBER  1, TIME INCREMENT   2.85    
 
	UNSYMMETRIC NEW DIRECT SPARSE SOLVER RUNNING ON
 	1 HOST x 1 MPI RANK PER HOST x 32 THREADS PER RANK
        NUMBER OF EQUATIONS:  17576
        NUMBER OF RHS:        1
        NUMBER OF FLOPS:      3.872e+09
        SOLVER ELAPSED TIME:  71ms

               CONVERGENCE CHECKS FOR EQUILIBRIUM ITERATION     1


 AVERAGE MASS FLUX                  4.545E-05   TIME AVG. MASS FLUX   5.423E-05
 LARGEST RESIDUAL MASS FLUX        -3.469E-18   AT NODE      13553   DOF 11
   INSTANCE: CUBOID-1                                                                        
 LARGEST INCREMENT OF CONCENT.      0.465       AT NODE         41   DOF 11
   INSTANCE: CUBOID-1                                                                        
 LARGEST CORRECTION TO CONCENT.    -5.900E-03   AT NODE      10868   DOF 11
   INSTANCE: CUBOID-1                                                                        
          THE MASS FLUX EQUILIBRIUM RESPONSE WAS LINEAR IN THIS INCREMENT

 MAXIMUM NON-PRESCRIBED INCREMENT IN NORMALIZED CONCENTRATION IS   0.465    

 ITERATION SUMMARY FOR THE INCREMENT:   1 TOTAL ITERATIONS, OF WHICH
   0 ARE SEVERE DISCONTINUITY ITERATIONS AND  1 ARE EQUILIBRIUM ITERATIONS.

 TIME INCREMENT COMPLETED   2.85    ,  FRACTION OF STEP COMPLETED  9.134E-04
 STEP TIME COMPLETED        91.3    ,  TOTAL TIME COMPLETED         91.3    


  INCREMENT    33 STARTS. ATTEMPT NUMBER  1, TIME INCREMENT   2.85    
 
	UNSYMMETRIC NEW DIRECT SPARSE SOLVER RUNNING ON
 	1 HOST x 1 MPI RANK PER HOST x 32 THREADS PER RANK
        NUMBER OF EQUATIONS:  17576
        NUMBER OF RHS:        1
        NUMBER OF FLOPS:      3.872e+09
        SOLVER ELAPSED TIME:  69ms

               CONVERGENCE CHECKS FOR EQUILIBRIUM ITERATION     1


 AVERAGE MASS FLUX                  4.545E-05   TIME AVG. MASS FLUX   5.397E-05
 LARGEST RESIDUAL MASS FLUX        -4.445E-18   AT NODE       4765   DOF 11
   INSTANCE: CUBOID-1                                                                        
 LARGEST INCREMENT OF CONCENT.      0.460       AT NODE         35   DOF 11
   INSTANCE: CUBOID-1                                                                        
 LARGEST CORRECTION TO CONCENT.    -5.804E-03   AT NODE      16950   DOF 11
   INSTANCE: CUBOID-1                                                                        
          THE MASS FLUX EQUILIBRIUM RESPONSE WAS LINEAR IN THIS INCREMENT

 MAXIMUM NON-PRESCRIBED INCREMENT IN NORMALIZED CONCENTRATION IS   0.460    

 ITERATION SUMMARY FOR THE INCREMENT:   1 TOTAL ITERATIONS, OF WHICH
   0 ARE SEVERE DISCONTINUITY ITERATIONS AND  1 ARE EQUILIBRIUM ITERATIONS.

 TIME INCREMENT COMPLETED   2.85    ,  FRACTION OF STEP COMPLETED  9.419E-04
 STEP TIME COMPLETED        94.2    ,  TOTAL TIME COMPLETED         94.2    


  INCREMENT    34 STARTS. ATTEMPT NUMBER  1, TIME INCREMENT   2.85    
 
	UNSYMMETRIC NEW DIRECT SPARSE SOLVER RUNNING ON
 	1 HOST x 1 MPI RANK PER HOST x 32 THREADS PER RANK
        NUMBER OF EQUATIONS:  17576
        NUMBER OF RHS:        1
        NUMBER OF FLOPS:      3.872e+09
        SOLVER ELAPSED TIME:  70ms

               CONVERGENCE CHECKS FOR EQUILIBRIUM ITERATION     1


 AVERAGE MASS FLUX                  4.545E-05   TIME AVG. MASS FLUX   5.372E-05
 LARGEST RESIDUAL MASS FLUX        -4.337E-18   AT NODE       4089   DOF 11
   INSTANCE: CUBOID-1                                                                        
 LARGEST INCREMENT OF CONCENT.      0.454       AT NODE         43   DOF 11
   INSTANCE: CUBOID-1                                                                        
 LARGEST CORRECTION TO CONCENT.    -5.710E-03   AT NODE       4765   DOF 11
   INSTANCE: CUBOID-1                                                                        
          THE MASS FLUX EQUILIBRIUM RESPONSE WAS LINEAR IN THIS INCREMENT

 MAXIMUM NON-PRESCRIBED INCREMENT IN NORMALIZED CONCENTRATION IS   0.454    

 ITERATION SUMMARY FOR THE INCREMENT:   1 TOTAL ITERATIONS, OF WHICH
   0 ARE SEVERE DISCONTINUITY ITERATIONS AND  1 ARE EQUILIBRIUM ITERATIONS.

 TIME INCREMENT COMPLETED   2.85    ,  FRACTION OF STEP COMPLETED  9.705E-04
 STEP TIME COMPLETED        97.0    ,  TOTAL TIME COMPLETED         97.0    


  INCREMENT    35 STARTS. ATTEMPT NUMBER  1, TIME INCREMENT   2.85    
 
	UNSYMMETRIC NEW DIRECT SPARSE SOLVER RUNNING ON
 	1 HOST x 1 MPI RANK PER HOST x 32 THREADS PER RANK
        NUMBER OF EQUATIONS:  17576
        NUMBER OF RHS:        1
        NUMBER OF FLOPS:      3.872e+09
        SOLVER ELAPSED TIME:  68ms

               CONVERGENCE CHECKS FOR EQUILIBRIUM ITERATION     1


 AVERAGE MASS FLUX                  4.545E-05   TIME AVG. MASS FLUX   5.348E-05
 LARGEST RESIDUAL MASS FLUX        -3.253E-18   AT NODE      10849   DOF 11
   INSTANCE: CUBOID-1                                                                        
 LARGEST INCREMENT OF CONCENT.      0.448       AT NODE         32   DOF 11
   INSTANCE: CUBOID-1                                                                        
 LARGEST CORRECTION TO CONCENT.    -5.617E-03   AT NODE      16930   DOF 11
   INSTANCE: CUBOID-1                                                                        
          THE MASS FLUX EQUILIBRIUM RESPONSE WAS LINEAR IN THIS INCREMENT

 MAXIMUM NON-PRESCRIBED INCREMENT IN NORMALIZED CONCENTRATION IS   0.448    

 ITERATION SUMMARY FOR THE INCREMENT:   1 TOTAL ITERATIONS, OF WHICH
   0 ARE SEVERE DISCONTINUITY ITERATIONS AND  1 ARE EQUILIBRIUM ITERATIONS.

 TIME INCREMENT COMPLETED   2.85    ,  FRACTION OF STEP COMPLETED  9.990E-04
 STEP TIME COMPLETED        99.9    ,  TOTAL TIME COMPLETED         99.9    


  INCREMENT    36 STARTS. ATTEMPT NUMBER  1, TIME INCREMENT   2.85    
 
	UNSYMMETRIC NEW DIRECT SPARSE SOLVER RUNNING ON
 	1 HOST x 1 MPI RANK PER HOST x 32 THREADS PER RANK
        NUMBER OF EQUATIONS:  17576
        NUMBER OF RHS:        1
        NUMBER OF FLOPS:      3.872e+09
        SOLVER ELAPSED TIME:  69ms

               CONVERGENCE CHECKS FOR EQUILIBRIUM ITERATION     1


 AVERAGE MASS FLUX                  4.545E-05   TIME AVG. MASS FLUX   5.326E-05
 LARGEST RESIDUAL MASS FLUX         4.608E-18   AT NODE       9499   DOF 11
   INSTANCE: CUBOID-1                                                                        
 LARGEST INCREMENT OF CONCENT.      0.443       AT NODE         36   DOF 11
   INSTANCE: CUBOID-1                                                                        
 LARGEST CORRECTION TO CONCENT.    -5.526E-03   AT NODE      16933   DOF 11
   INSTANCE: CUBOID-1                                                                        
          THE MASS FLUX EQUILIBRIUM RESPONSE WAS LINEAR IN THIS INCREMENT

 MAXIMUM NON-PRESCRIBED INCREMENT IN NORMALIZED CONCENTRATION IS   0.443    

 ITERATION SUMMARY FOR THE INCREMENT:   1 TOTAL ITERATIONS, OF WHICH
   0 ARE SEVERE DISCONTINUITY ITERATIONS AND  1 ARE EQUILIBRIUM ITERATIONS.

 TIME INCREMENT COMPLETED   2.85    ,  FRACTION OF STEP COMPLETED  1.028E-03
 STEP TIME COMPLETED        103.    ,  TOTAL TIME COMPLETED         103.    


  INCREMENT    37 STARTS. ATTEMPT NUMBER  1, TIME INCREMENT   2.85    
 
	UNSYMMETRIC NEW DIRECT SPARSE SOLVER RUNNING ON
 	1 HOST x 1 MPI RANK PER HOST x 32 THREADS PER RANK
        NUMBER OF EQUATIONS:  17576
        NUMBER OF RHS:        1
        NUMBER OF FLOPS:      3.872e+09
        SOLVER ELAPSED TIME:  80ms

               CONVERGENCE CHECKS FOR EQUILIBRIUM ITERATION     1


 AVERAGE MASS FLUX                  4.545E-05   TIME AVG. MASS FLUX   5.305E-05
 LARGEST RESIDUAL MASS FLUX         4.039E-18   AT NODE      12876   DOF 11
   INSTANCE: CUBOID-1                                                                        
 LARGEST INCREMENT OF CONCENT.      0.437       AT NODE         36   DOF 11
   INSTANCE: CUBOID-1                                                                        
 LARGEST CORRECTION TO CONCENT.    -5.437E-03   AT NODE      16938   DOF 11
   INSTANCE: CUBOID-1                                                                        
          THE MASS FLUX EQUILIBRIUM RESPONSE WAS LINEAR IN THIS INCREMENT

 MAXIMUM NON-PRESCRIBED INCREMENT IN NORMALIZED CONCENTRATION IS   0.437    

 ITERATION SUMMARY FOR THE INCREMENT:   1 TOTAL ITERATIONS, OF WHICH
   0 ARE SEVERE DISCONTINUITY ITERATIONS AND  1 ARE EQUILIBRIUM ITERATIONS.

 TIME INCREMENT COMPLETED   2.85    ,  FRACTION OF STEP COMPLETED  1.056E-03
 STEP TIME COMPLETED        106.    ,  TOTAL TIME COMPLETED         106.    


  INCREMENT    38 STARTS. ATTEMPT NUMBER  1, TIME INCREMENT   2.85    
 
	UNSYMMETRIC NEW DIRECT SPARSE SOLVER RUNNING ON
 	1 HOST x 1 MPI RANK PER HOST x 32 THREADS PER RANK
        NUMBER OF EQUATIONS:  17576
        NUMBER OF RHS:        1
        NUMBER OF FLOPS:      3.872e+09
        SOLVER ELAPSED TIME:  79ms

               CONVERGENCE CHECKS FOR EQUILIBRIUM ITERATION     1


 AVERAGE MASS FLUX                  4.545E-05   TIME AVG. MASS FLUX   5.285E-05
 LARGEST RESIDUAL MASS FLUX        -3.740E-18   AT NODE      14229   DOF 11
   INSTANCE: CUBOID-1                                                                        
 LARGEST INCREMENT OF CONCENT.      0.432       AT NODE       2743   DOF 11
   INSTANCE: CUBOID-1                                                                        
 LARGEST CORRECTION TO CONCENT.    -5.350E-03   AT NODE      16936   DOF 11
   INSTANCE: CUBOID-1                                                                        
          THE MASS FLUX EQUILIBRIUM RESPONSE WAS LINEAR IN THIS INCREMENT

 MAXIMUM NON-PRESCRIBED INCREMENT IN NORMALIZED CONCENTRATION IS   0.432    

 ITERATION SUMMARY FOR THE INCREMENT:   1 TOTAL ITERATIONS, OF WHICH
   0 ARE SEVERE DISCONTINUITY ITERATIONS AND  1 ARE EQUILIBRIUM ITERATIONS.

 TIME INCREMENT COMPLETED   2.85    ,  FRACTION OF STEP COMPLETED  1.085E-03
 STEP TIME COMPLETED        108.    ,  TOTAL TIME COMPLETED         108.    


  INCREMENT    39 STARTS. ATTEMPT NUMBER  1, TIME INCREMENT   2.85    
 
	UNSYMMETRIC NEW DIRECT SPARSE SOLVER RUNNING ON
 	1 HOST x 1 MPI RANK PER HOST x 32 THREADS PER RANK
        NUMBER OF EQUATIONS:  17576
        NUMBER OF RHS:        1
        NUMBER OF FLOPS:      3.872e+09
        SOLVER ELAPSED TIME:  81ms

               CONVERGENCE CHECKS FOR EQUILIBRIUM ITERATION     1


 AVERAGE MASS FLUX                  4.545E-05   TIME AVG. MASS FLUX   5.266E-05
 LARGEST RESIDUAL MASS FLUX        -3.307E-18   AT NODE      16257   DOF 11
   INSTANCE: CUBOID-1                                                                        
 LARGEST INCREMENT OF CONCENT.      0.427       AT NODE         41   DOF 11
   INSTANCE: CUBOID-1                                                                        
 LARGEST CORRECTION TO CONCENT.    -5.264E-03   AT NODE      16933   DOF 11
   INSTANCE: CUBOID-1                                                                        
          THE MASS FLUX EQUILIBRIUM RESPONSE WAS LINEAR IN THIS INCREMENT

 MAXIMUM NON-PRESCRIBED INCREMENT IN NORMALIZED CONCENTRATION IS   0.427    

 ITERATION SUMMARY FOR THE INCREMENT:   1 TOTAL ITERATIONS, OF WHICH
   0 ARE SEVERE DISCONTINUITY ITERATIONS AND  1 ARE EQUILIBRIUM ITERATIONS.

 TIME INCREMENT COMPLETED   2.85    ,  FRACTION OF STEP COMPLETED  1.113E-03
 STEP TIME COMPLETED        111.    ,  TOTAL TIME COMPLETED         111.    


  INCREMENT    40 STARTS. ATTEMPT NUMBER  1, TIME INCREMENT   2.85    
 
	UNSYMMETRIC NEW DIRECT SPARSE SOLVER RUNNING ON
 	1 HOST x 1 MPI RANK PER HOST x 32 THREADS PER RANK
        NUMBER OF EQUATIONS:  17576
        NUMBER OF RHS:        1
        NUMBER OF FLOPS:      3.872e+09
        SOLVER ELAPSED TIME:  68ms

               CONVERGENCE CHECKS FOR EQUILIBRIUM ITERATION     1


 AVERAGE MASS FLUX                  4.545E-05   TIME AVG. MASS FLUX   5.248E-05
 LARGEST RESIDUAL MASS FLUX        -4.743E-18   AT NODE       4774   DOF 11
   INSTANCE: CUBOID-1                                                                        
 LARGEST INCREMENT OF CONCENT.      0.422       AT NODE         32   DOF 11
   INSTANCE: CUBOID-1                                                                        
 LARGEST CORRECTION TO CONCENT.    -5.179E-03   AT NODE      16938   DOF 11
   INSTANCE: CUBOID-1                                                                        
          THE MASS FLUX EQUILIBRIUM RESPONSE WAS LINEAR IN THIS INCREMENT

 MAXIMUM NON-PRESCRIBED INCREMENT IN NORMALIZED CONCENTRATION IS   0.422    

 ITERATION SUMMARY FOR THE INCREMENT:   1 TOTAL ITERATIONS, OF WHICH
   0 ARE SEVERE DISCONTINUITY ITERATIONS AND  1 ARE EQUILIBRIUM ITERATIONS.

 TIME INCREMENT COMPLETED   2.85    ,  FRACTION OF STEP COMPLETED  1.142E-03
 STEP TIME COMPLETED        114.    ,  TOTAL TIME COMPLETED         114.    


  INCREMENT    41 STARTS. ATTEMPT NUMBER  1, TIME INCREMENT   2.85    
 
	UNSYMMETRIC NEW DIRECT SPARSE SOLVER RUNNING ON
 	1 HOST x 1 MPI RANK PER HOST x 32 THREADS PER RANK
        NUMBER OF EQUATIONS:  17576
        NUMBER OF RHS:        1
        NUMBER OF FLOPS:      3.872e+09
        SOLVER ELAPSED TIME:  81ms

               CONVERGENCE CHECKS FOR EQUILIBRIUM ITERATION     1


 AVERAGE MASS FLUX                  4.545E-05   TIME AVG. MASS FLUX   5.230E-05
 LARGEST RESIDUAL MASS FLUX        -3.740E-18   AT NODE       2061   DOF 11
   INSTANCE: CUBOID-1                                                                        
 LARGEST INCREMENT OF CONCENT.      0.416       AT NODE         34   DOF 11
   INSTANCE: CUBOID-1                                                                        
 LARGEST CORRECTION TO CONCENT.    -5.097E-03   AT NODE       4774   DOF 11
   INSTANCE: CUBOID-1                                                                        
          THE MASS FLUX EQUILIBRIUM RESPONSE WAS LINEAR IN THIS INCREMENT

 MAXIMUM NON-PRESCRIBED INCREMENT IN NORMALIZED CONCENTRATION IS   0.416    

 ITERATION SUMMARY FOR THE INCREMENT:   1 TOTAL ITERATIONS, OF WHICH
   0 ARE SEVERE DISCONTINUITY ITERATIONS AND  1 ARE EQUILIBRIUM ITERATIONS.

 TIME INCREMENT COMPLETED   2.85    ,  FRACTION OF STEP COMPLETED  1.170E-03
 STEP TIME COMPLETED        117.    ,  TOTAL TIME COMPLETED         117.    


  INCREMENT    42 STARTS. ATTEMPT NUMBER  1, TIME INCREMENT   2.85    
 
	UNSYMMETRIC NEW DIRECT SPARSE SOLVER RUNNING ON
 	1 HOST x 1 MPI RANK PER HOST x 32 THREADS PER RANK
        NUMBER OF EQUATIONS:  17576
        NUMBER OF RHS:        1
        NUMBER OF FLOPS:      3.872e+09
        SOLVER ELAPSED TIME:  70ms

               CONVERGENCE CHECKS FOR EQUILIBRIUM ITERATION     1


 AVERAGE MASS FLUX                  4.545E-05   TIME AVG. MASS FLUX   5.214E-05
 LARGEST RESIDUAL MASS FLUX        -5.096E-18   AT NODE       4770   DOF 11
   INSTANCE: CUBOID-1                                                                        
 LARGEST INCREMENT OF CONCENT.      0.411       AT NODE         29   DOF 11
   INSTANCE: CUBOID-1                                                                        
 LARGEST CORRECTION TO CONCENT.    -5.015E-03   AT NODE      16938   DOF 11
   INSTANCE: CUBOID-1                                                                        
          THE MASS FLUX EQUILIBRIUM RESPONSE WAS LINEAR IN THIS INCREMENT

 MAXIMUM NON-PRESCRIBED INCREMENT IN NORMALIZED CONCENTRATION IS   0.411    

 ITERATION SUMMARY FOR THE INCREMENT:   1 TOTAL ITERATIONS, OF WHICH
   0 ARE SEVERE DISCONTINUITY ITERATIONS AND  1 ARE EQUILIBRIUM ITERATIONS.

 TIME INCREMENT COMPLETED   2.85    ,  FRACTION OF STEP COMPLETED  1.199E-03
 STEP TIME COMPLETED        120.    ,  TOTAL TIME COMPLETED         120.    


  INCREMENT    43 STARTS. ATTEMPT NUMBER  1, TIME INCREMENT   2.85    
 
	UNSYMMETRIC NEW DIRECT SPARSE SOLVER RUNNING ON
 	1 HOST x 1 MPI RANK PER HOST x 32 THREADS PER RANK
        NUMBER OF EQUATIONS:  17576
        NUMBER OF RHS:        1
        NUMBER OF FLOPS:      3.872e+09
        SOLVER ELAPSED TIME:  80ms

               CONVERGENCE CHECKS FOR EQUILIBRIUM ITERATION     1


 AVERAGE MASS FLUX                  4.545E-05   TIME AVG. MASS FLUX   5.199E-05
 LARGEST RESIDUAL MASS FLUX         3.984E-18   AT NODE       6116   DOF 11
   INSTANCE: CUBOID-1                                                                        
 LARGEST INCREMENT OF CONCENT.      0.406       AT NODE         41   DOF 11
   INSTANCE: CUBOID-1                                                                        
 LARGEST CORRECTION TO CONCENT.    -4.936E-03   AT NODE       4770   DOF 11
   INSTANCE: CUBOID-1                                                                        
          THE MASS FLUX EQUILIBRIUM RESPONSE WAS LINEAR IN THIS INCREMENT

 MAXIMUM NON-PRESCRIBED INCREMENT IN NORMALIZED CONCENTRATION IS   0.406    

 ITERATION SUMMARY FOR THE INCREMENT:   1 TOTAL ITERATIONS, OF WHICH
   0 ARE SEVERE DISCONTINUITY ITERATIONS AND  1 ARE EQUILIBRIUM ITERATIONS.

 TIME INCREMENT COMPLETED   2.85    ,  FRACTION OF STEP COMPLETED  1.227E-03
 STEP TIME COMPLETED        123.    ,  TOTAL TIME COMPLETED         123.    


  INCREMENT    44 STARTS. ATTEMPT NUMBER  1, TIME INCREMENT   2.85    
 
	UNSYMMETRIC NEW DIRECT SPARSE SOLVER RUNNING ON
 	1 HOST x 1 MPI RANK PER HOST x 32 THREADS PER RANK
        NUMBER OF EQUATIONS:  17576
        NUMBER OF RHS:        1
        NUMBER OF FLOPS:      3.872e+09
        SOLVER ELAPSED TIME:  68ms

               CONVERGENCE CHECKS FOR EQUILIBRIUM ITERATION     1


 AVERAGE MASS FLUX                  4.545E-05   TIME AVG. MASS FLUX   5.184E-05
 LARGEST RESIDUAL MASS FLUX        -3.415E-18   AT NODE      10849   DOF 11
   INSTANCE: CUBOID-1                                                                        
 LARGEST INCREMENT OF CONCENT.      0.402       AT NODE       2060   DOF 11
   INSTANCE: CUBOID-1                                                                        
 LARGEST CORRECTION TO CONCENT.    -4.857E-03   AT NODE      16944   DOF 11
   INSTANCE: CUBOID-1                                                                        
          THE MASS FLUX EQUILIBRIUM RESPONSE WAS LINEAR IN THIS INCREMENT

 MAXIMUM NON-PRESCRIBED INCREMENT IN NORMALIZED CONCENTRATION IS   0.402    

 ITERATION SUMMARY FOR THE INCREMENT:   1 TOTAL ITERATIONS, OF WHICH
   0 ARE SEVERE DISCONTINUITY ITERATIONS AND  1 ARE EQUILIBRIUM ITERATIONS.

 TIME INCREMENT COMPLETED   2.85    ,  FRACTION OF STEP COMPLETED  1.256E-03
 STEP TIME COMPLETED        126.    ,  TOTAL TIME COMPLETED         126.    


  INCREMENT    45 STARTS. ATTEMPT NUMBER  1, TIME INCREMENT   2.85    
 
	UNSYMMETRIC NEW DIRECT SPARSE SOLVER RUNNING ON
 	1 HOST x 1 MPI RANK PER HOST x 32 THREADS PER RANK
        NUMBER OF EQUATIONS:  17576
        NUMBER OF RHS:        1
        NUMBER OF FLOPS:      3.872e+09
        SOLVER ELAPSED TIME:  71ms

               CONVERGENCE CHECKS FOR EQUILIBRIUM ITERATION     1


 AVERAGE MASS FLUX                  4.545E-05   TIME AVG. MASS FLUX   5.170E-05
 LARGEST RESIDUAL MASS FLUX        -4.879E-18   AT NODE       8821   DOF 11
   INSTANCE: CUBOID-1                                                                        
 LARGEST INCREMENT OF CONCENT.      0.397       AT NODE         49   DOF 11
   INSTANCE: CUBOID-1                                                                        
 LARGEST CORRECTION TO CONCENT.    -4.781E-03   AT NODE      16952   DOF 11
   INSTANCE: CUBOID-1                                                                        
          THE MASS FLUX EQUILIBRIUM RESPONSE WAS LINEAR IN THIS INCREMENT

 MAXIMUM NON-PRESCRIBED INCREMENT IN NORMALIZED CONCENTRATION IS   0.397    

 ITERATION SUMMARY FOR THE INCREMENT:   1 TOTAL ITERATIONS, OF WHICH
   0 ARE SEVERE DISCONTINUITY ITERATIONS AND  1 ARE EQUILIBRIUM ITERATIONS.

 TIME INCREMENT COMPLETED   2.85    ,  FRACTION OF STEP COMPLETED  1.284E-03
 STEP TIME COMPLETED        128.    ,  TOTAL TIME COMPLETED         128.    


  INCREMENT    46 STARTS. ATTEMPT NUMBER  1, TIME INCREMENT   2.85    
 
	UNSYMMETRIC NEW DIRECT SPARSE SOLVER RUNNING ON
 	1 HOST x 1 MPI RANK PER HOST x 32 THREADS PER RANK
        NUMBER OF EQUATIONS:  17576
        NUMBER OF RHS:        1
        NUMBER OF FLOPS:      3.872e+09
        SOLVER ELAPSED TIME:  79ms

               CONVERGENCE CHECKS FOR EQUILIBRIUM ITERATION     1


 AVERAGE MASS FLUX                  4.545E-05   TIME AVG. MASS FLUX   5.156E-05
 LARGEST RESIDUAL MASS FLUX        -4.757E-18   AT NODE       4768   DOF 11
   INSTANCE: CUBOID-1                                                                        
 LARGEST INCREMENT OF CONCENT.      0.392       AT NODE         43   DOF 11
   INSTANCE: CUBOID-1                                                                        
 LARGEST CORRECTION TO CONCENT.    -4.705E-03   AT NODE       8821   DOF 11
   INSTANCE: CUBOID-1                                                                        
          THE MASS FLUX EQUILIBRIUM RESPONSE WAS LINEAR IN THIS INCREMENT

 MAXIMUM NON-PRESCRIBED INCREMENT IN NORMALIZED CONCENTRATION IS   0.392    

 ITERATION SUMMARY FOR THE INCREMENT:   1 TOTAL ITERATIONS, OF WHICH
   0 ARE SEVERE DISCONTINUITY ITERATIONS AND  1 ARE EQUILIBRIUM ITERATIONS.

 TIME INCREMENT COMPLETED   2.85    ,  FRACTION OF STEP COMPLETED  1.313E-03
 STEP TIME COMPLETED        131.    ,  TOTAL TIME COMPLETED         131.    


  INCREMENT    47 STARTS. ATTEMPT NUMBER  1, TIME INCREMENT   2.85    
 
	UNSYMMETRIC NEW DIRECT SPARSE SOLVER RUNNING ON
 	1 HOST x 1 MPI RANK PER HOST x 32 THREADS PER RANK
        NUMBER OF EQUATIONS:  17576
        NUMBER OF RHS:        1
        NUMBER OF FLOPS:      3.872e+09
        SOLVER ELAPSED TIME:  81ms

               CONVERGENCE CHECKS FOR EQUILIBRIUM ITERATION     1


 AVERAGE MASS FLUX                  4.545E-05   TIME AVG. MASS FLUX   5.143E-05
 LARGEST RESIDUAL MASS FLUX         3.307E-18   AT NODE       3421   DOF 11
   INSTANCE: CUBOID-1                                                                        
 LARGEST INCREMENT OF CONCENT.      0.387       AT NODE       3412   DOF 11
   INSTANCE: CUBOID-1                                                                        
 LARGEST CORRECTION TO CONCENT.    -4.631E-03   AT NODE       4768   DOF 11
   INSTANCE: CUBOID-1                                                                        
          THE MASS FLUX EQUILIBRIUM RESPONSE WAS LINEAR IN THIS INCREMENT

 MAXIMUM NON-PRESCRIBED INCREMENT IN NORMALIZED CONCENTRATION IS   0.387    

 ITERATION SUMMARY FOR THE INCREMENT:   1 TOTAL ITERATIONS, OF WHICH
   0 ARE SEVERE DISCONTINUITY ITERATIONS AND  1 ARE EQUILIBRIUM ITERATIONS.

 TIME INCREMENT COMPLETED   2.85    ,  FRACTION OF STEP COMPLETED  1.342E-03
 STEP TIME COMPLETED        134.    ,  TOTAL TIME COMPLETED         134.    


  INCREMENT    48 STARTS. ATTEMPT NUMBER  1, TIME INCREMENT   2.85    
 
	UNSYMMETRIC NEW DIRECT SPARSE SOLVER RUNNING ON
 	1 HOST x 1 MPI RANK PER HOST x 32 THREADS PER RANK
        NUMBER OF EQUATIONS:  17576
        NUMBER OF RHS:        1
        NUMBER OF FLOPS:      3.872e+09
        SOLVER ELAPSED TIME:  81ms

               CONVERGENCE CHECKS FOR EQUILIBRIUM ITERATION     1


 AVERAGE MASS FLUX                  4.545E-05   TIME AVG. MASS FLUX   5.131E-05
 LARGEST RESIDUAL MASS FLUX        -4.770E-18   AT NODE      14227   DOF 11
   INSTANCE: CUBOID-1                                                                        
 LARGEST INCREMENT OF CONCENT.      0.383       AT NODE         52   DOF 11
   INSTANCE: CUBOID-1                                                                        
 LARGEST CORRECTION TO CONCENT.    -4.558E-03   AT NODE      16938   DOF 11
   INSTANCE: CUBOID-1                                                                        
          THE MASS FLUX EQUILIBRIUM RESPONSE WAS LINEAR IN THIS INCREMENT

 MAXIMUM NON-PRESCRIBED INCREMENT IN NORMALIZED CONCENTRATION IS   0.383    

 ITERATION SUMMARY FOR THE INCREMENT:   1 TOTAL ITERATIONS, OF WHICH
   0 ARE SEVERE DISCONTINUITY ITERATIONS AND  1 ARE EQUILIBRIUM ITERATIONS.

 TIME INCREMENT COMPLETED   2.85    ,  FRACTION OF STEP COMPLETED  1.370E-03
 STEP TIME COMPLETED        137.    ,  TOTAL TIME COMPLETED         137.    


  INCREMENT    49 STARTS. ATTEMPT NUMBER  1, TIME INCREMENT   2.85    
 
	UNSYMMETRIC NEW DIRECT SPARSE SOLVER RUNNING ON
 	1 HOST x 1 MPI RANK PER HOST x 32 THREADS PER RANK
        NUMBER OF EQUATIONS:  17576
        NUMBER OF RHS:        1
        NUMBER OF FLOPS:      3.872e+09
        SOLVER ELAPSED TIME:  82ms

               CONVERGENCE CHECKS FOR EQUILIBRIUM ITERATION     1


 AVERAGE MASS FLUX                  4.545E-05   TIME AVG. MASS FLUX   5.119E-05
 LARGEST RESIDUAL MASS FLUX         3.388E-18   AT NODE       2736   DOF 11
   INSTANCE: CUBOID-1                                                                        
 LARGEST INCREMENT OF CONCENT.      0.378       AT NODE      15580   DOF 11
   INSTANCE: CUBOID-1                                                                        
 LARGEST CORRECTION TO CONCENT.    -4.487E-03   AT NODE      11519   DOF 11
   INSTANCE: CUBOID-1                                                                        
          THE MASS FLUX EQUILIBRIUM RESPONSE WAS LINEAR IN THIS INCREMENT

 MAXIMUM NON-PRESCRIBED INCREMENT IN NORMALIZED CONCENTRATION IS   0.378    

 ITERATION SUMMARY FOR THE INCREMENT:   1 TOTAL ITERATIONS, OF WHICH
   0 ARE SEVERE DISCONTINUITY ITERATIONS AND  1 ARE EQUILIBRIUM ITERATIONS.

 TIME INCREMENT COMPLETED   2.85    ,  FRACTION OF STEP COMPLETED  1.399E-03
 STEP TIME COMPLETED        140.    ,  TOTAL TIME COMPLETED         140.    


  INCREMENT    50 STARTS. ATTEMPT NUMBER  1, TIME INCREMENT   2.85    
 
	UNSYMMETRIC NEW DIRECT SPARSE SOLVER RUNNING ON
 	1 HOST x 1 MPI RANK PER HOST x 32 THREADS PER RANK
        NUMBER OF EQUATIONS:  17576
        NUMBER OF RHS:        1
        NUMBER OF FLOPS:      3.872e+09
        SOLVER ELAPSED TIME:  77ms

               CONVERGENCE CHECKS FOR EQUILIBRIUM ITERATION     1


 AVERAGE MASS FLUX                  4.545E-05   TIME AVG. MASS FLUX   5.107E-05
 LARGEST RESIDUAL MASS FLUX         4.635E-18   AT NODE       9504   DOF 11
   INSTANCE: CUBOID-1                                                                        
 LARGEST INCREMENT OF CONCENT.      0.374       AT NODE         48   DOF 11
   INSTANCE: CUBOID-1                                                                        
 LARGEST CORRECTION TO CONCENT.    -4.417E-03   AT NODE      16933   DOF 11
   INSTANCE: CUBOID-1                                                                        
          THE MASS FLUX EQUILIBRIUM RESPONSE WAS LINEAR IN THIS INCREMENT

[...]
 
	UNSYMMETRIC NEW DIRECT SPARSE SOLVER RUNNING ON
 	1 HOST x 1 MPI RANK PER HOST x 32 THREADS PER RANK
        NUMBER OF EQUATIONS:  17576
        NUMBER OF RHS:        1
        NUMBER OF FLOPS:      3.872e+09
        SOLVER ELAPSED TIME:  83ms

               CONVERGENCE CHECKS FOR EQUILIBRIUM ITERATION     1


 AVERAGE MASS FLUX                  1.123E-05   TIME AVG. MASS FLUX   2.142E-05
 LARGEST RESIDUAL MASS FLUX         1.193E-18   AT NODE       9214   DOF 11
   INSTANCE: CUBOID-1                                                                        
 LARGEST INCREMENT OF CONCENT.      0.106       AT NODE        286   DOF 11
   INSTANCE: CUBOID-1                                                                        
 LARGEST CORRECTION TO CONCENT.    -5.935E-04   AT NODE        209   DOF 11
   INSTANCE: CUBOID-1                                                                        
          THE MASS FLUX EQUILIBRIUM RESPONSE WAS LINEAR IN THIS INCREMENT

 MAXIMUM NON-PRESCRIBED INCREMENT IN NORMALIZED CONCENTRATION IS   0.106    

 ITERATION SUMMARY FOR THE INCREMENT:   1 TOTAL ITERATIONS, OF WHICH
   0 ARE SEVERE DISCONTINUITY ITERATIONS AND  1 ARE EQUILIBRIUM ITERATIONS.

 TIME INCREMENT COMPLETED   100.    ,  FRACTION OF STEP COMPLETED  0.225    
 STEP TIME COMPLETED       2.250E+04,  TOTAL TIME COMPLETED        2.250E+04


  INCREMENT   401 STARTS. ATTEMPT NUMBER  1, TIME INCREMENT   100.    
 
	UNSYMMETRIC NEW DIRECT SPARSE SOLVER RUNNING ON
 	1 HOST x 1 MPI RANK PER HOST x 32 THREADS PER RANK
        NUMBER OF EQUATIONS:  17576
        NUMBER OF RHS:        1
        NUMBER OF FLOPS:      3.872e+09
        SOLVER ELAPSED TIME:  82ms

               CONVERGENCE CHECKS FOR EQUILIBRIUM ITERATION     1


 AVERAGE MASS FLUX                  1.124E-05   TIME AVG. MASS FLUX   2.140E-05
 LARGEST RESIDUAL MASS FLUX        -1.179E-18   AT NODE      13240   DOF 11
   INSTANCE: CUBOID-1                                                                        
 LARGEST INCREMENT OF CONCENT.      0.105       AT NODE        286   DOF 11
   INSTANCE: CUBOID-1                                                                        
 LARGEST CORRECTION TO CONCENT.    -5.885E-04   AT NODE        209   DOF 11
   INSTANCE: CUBOID-1                                                                        
          THE MASS FLUX EQUILIBRIUM RESPONSE WAS LINEAR IN THIS INCREMENT

 MAXIMUM NON-PRESCRIBED INCREMENT IN NORMALIZED CONCENTRATION IS   0.105    

 ITERATION SUMMARY FOR THE INCREMENT:   1 TOTAL ITERATIONS, OF WHICH
   0 ARE SEVERE DISCONTINUITY ITERATIONS AND  1 ARE EQUILIBRIUM ITERATIONS.

 TIME INCREMENT COMPLETED   100.    ,  FRACTION OF STEP COMPLETED  0.226    
 STEP TIME COMPLETED       2.260E+04,  TOTAL TIME COMPLETED        2.260E+04


  INCREMENT   402 STARTS. ATTEMPT NUMBER  1, TIME INCREMENT   100.    
 
	UNSYMMETRIC NEW DIRECT SPARSE SOLVER RUNNING ON
 	1 HOST x 1 MPI RANK PER HOST x 32 THREADS PER RANK
        NUMBER OF EQUATIONS:  17576
        NUMBER OF RHS:        1
        NUMBER OF FLOPS:      3.872e+09
        SOLVER ELAPSED TIME:  80ms

               CONVERGENCE CHECKS FOR EQUILIBRIUM ITERATION     1


 AVERAGE MASS FLUX                  1.124E-05   TIME AVG. MASS FLUX   2.137E-05
 LARGEST RESIDUAL MASS FLUX        -1.206E-18   AT NODE      13317   DOF 11
   INSTANCE: CUBOID-1                                                                        
 LARGEST INCREMENT OF CONCENT.      0.104       AT NODE        286   DOF 11
   INSTANCE: CUBOID-1                                                                        
 LARGEST CORRECTION TO CONCENT.    -5.836E-04   AT NODE        209   DOF 11
   INSTANCE: CUBOID-1                                                                        
          THE MASS FLUX EQUILIBRIUM RESPONSE WAS LINEAR IN THIS INCREMENT

 MAXIMUM NON-PRESCRIBED INCREMENT IN NORMALIZED CONCENTRATION IS   0.104    

 ITERATION SUMMARY FOR THE INCREMENT:   1 TOTAL ITERATIONS, OF WHICH
   0 ARE SEVERE DISCONTINUITY ITERATIONS AND  1 ARE EQUILIBRIUM ITERATIONS.

 TIME INCREMENT COMPLETED   100.    ,  FRACTION OF STEP COMPLETED  0.227    
 STEP TIME COMPLETED       2.270E+04,  TOTAL TIME COMPLETED        2.270E+04


  INCREMENT   403 STARTS. ATTEMPT NUMBER  1, TIME INCREMENT   100.    
 
	UNSYMMETRIC NEW DIRECT SPARSE SOLVER RUNNING ON
 	1 HOST x 1 MPI RANK PER HOST x 32 THREADS PER RANK
        NUMBER OF EQUATIONS:  17576
        NUMBER OF RHS:        1
        NUMBER OF FLOPS:      3.872e+09
        SOLVER ELAPSED TIME:  82ms

               CONVERGENCE CHECKS FOR EQUILIBRIUM ITERATION     1


 AVERAGE MASS FLUX                  1.125E-05   TIME AVG. MASS FLUX   2.135E-05
 LARGEST RESIDUAL MASS FLUX        -1.287E-18   AT NODE      11867   DOF 11
   INSTANCE: CUBOID-1                                                                        
 LARGEST INCREMENT OF CONCENT.      0.104       AT NODE        286   DOF 11
   INSTANCE: CUBOID-1                                                                        
 LARGEST CORRECTION TO CONCENT.    -5.787E-04   AT NODE        209   DOF 11
   INSTANCE: CUBOID-1                                                                        
          THE MASS FLUX EQUILIBRIUM RESPONSE WAS LINEAR IN THIS INCREMENT

 MAXIMUM NON-PRESCRIBED INCREMENT IN NORMALIZED CONCENTRATION IS   0.104    

 ITERATION SUMMARY FOR THE INCREMENT:   1 TOTAL ITERATIONS, OF WHICH
   0 ARE SEVERE DISCONTINUITY ITERATIONS AND  1 ARE EQUILIBRIUM ITERATIONS.

 TIME INCREMENT COMPLETED   100.    ,  FRACTION OF STEP COMPLETED  0.228    
 STEP TIME COMPLETED       2.280E+04,  TOTAL TIME COMPLETED        2.280E+04


  INCREMENT   404 STARTS. ATTEMPT NUMBER  1, TIME INCREMENT   100.    
 
	UNSYMMETRIC NEW DIRECT SPARSE SOLVER RUNNING ON
 	1 HOST x 1 MPI RANK PER HOST x 32 THREADS PER RANK
        NUMBER OF EQUATIONS:  17576
        NUMBER OF RHS:        1
        NUMBER OF FLOPS:      3.872e+09
        SOLVER ELAPSED TIME:  80ms

               CONVERGENCE CHECKS FOR EQUILIBRIUM ITERATION     1


 AVERAGE MASS FLUX                  1.125E-05   TIME AVG. MASS FLUX   2.132E-05
 LARGEST RESIDUAL MASS FLUX        -1.105E-18   AT NODE      13998   DOF 11
   INSTANCE: CUBOID-1                                                                        
 LARGEST INCREMENT OF CONCENT.      0.103       AT NODE        286   DOF 11
   INSTANCE: CUBOID-1                                                                        
 LARGEST CORRECTION TO CONCENT.    -5.739E-04   AT NODE        209   DOF 11
   INSTANCE: CUBOID-1                                                                        
          THE MASS FLUX EQUILIBRIUM RESPONSE WAS LINEAR IN THIS INCREMENT

 MAXIMUM NON-PRESCRIBED INCREMENT IN NORMALIZED CONCENTRATION IS   0.103    

 ITERATION SUMMARY FOR THE INCREMENT:   1 TOTAL ITERATIONS, OF WHICH
   0 ARE SEVERE DISCONTINUITY ITERATIONS AND  1 ARE EQUILIBRIUM ITERATIONS.

 TIME INCREMENT COMPLETED   100.    ,  FRACTION OF STEP COMPLETED  0.229    
 STEP TIME COMPLETED       2.290E+04,  TOTAL TIME COMPLETED        2.290E+04


  INCREMENT   405 STARTS. ATTEMPT NUMBER  1, TIME INCREMENT   100.    
 
	UNSYMMETRIC NEW DIRECT SPARSE SOLVER RUNNING ON
 	1 HOST x 1 MPI RANK PER HOST x 32 THREADS PER RANK
        NUMBER OF EQUATIONS:  17576
        NUMBER OF RHS:        1
        NUMBER OF FLOPS:      3.872e+09
        SOLVER ELAPSED TIME:  80ms

               CONVERGENCE CHECKS FOR EQUILIBRIUM ITERATION     1


 AVERAGE MASS FLUX                  1.126E-05   TIME AVG. MASS FLUX   2.130E-05
 LARGEST RESIDUAL MASS FLUX         1.030E-18   AT NODE       3453   DOF 11
   INSTANCE: CUBOID-1                                                                        
 LARGEST INCREMENT OF CONCENT.      0.103       AT NODE        286   DOF 11
   INSTANCE: CUBOID-1                                                                        
 LARGEST CORRECTION TO CONCENT.    -5.691E-04   AT NODE        209   DOF 11
   INSTANCE: CUBOID-1                                                                        
          THE MASS FLUX EQUILIBRIUM RESPONSE WAS LINEAR IN THIS INCREMENT

 MAXIMUM NON-PRESCRIBED INCREMENT IN NORMALIZED CONCENTRATION IS   0.103    

 ITERATION SUMMARY FOR THE INCREMENT:   1 TOTAL ITERATIONS, OF WHICH
   0 ARE SEVERE DISCONTINUITY ITERATIONS AND  1 ARE EQUILIBRIUM ITERATIONS.

 TIME INCREMENT COMPLETED   100.    ,  FRACTION OF STEP COMPLETED  0.230    
 STEP TIME COMPLETED       2.300E+04,  TOTAL TIME COMPLETED        2.300E+04


  INCREMENT   406 STARTS. ATTEMPT NUMBER  1, TIME INCREMENT   100.    
 
	UNSYMMETRIC NEW DIRECT SPARSE SOLVER RUNNING ON
 	1 HOST x 1 MPI RANK PER HOST x 32 THREADS PER RANK
        NUMBER OF EQUATIONS:  17576
        NUMBER OF RHS:        1
        NUMBER OF FLOPS:      3.872e+09
        SOLVER ELAPSED TIME:  83ms

               CONVERGENCE CHECKS FOR EQUILIBRIUM ITERATION     1


 AVERAGE MASS FLUX                  1.126E-05   TIME AVG. MASS FLUX   2.127E-05
 LARGEST RESIDUAL MASS FLUX        -1.071E-18   AT NODE       8223   DOF 11
   INSTANCE: CUBOID-1                                                                        
 LARGEST INCREMENT OF CONCENT.      0.102       AT NODE        312   DOF 11
   INSTANCE: CUBOID-1                                                                        
 LARGEST CORRECTION TO CONCENT.    -5.644E-04   AT NODE        209   DOF 11
   INSTANCE: CUBOID-1                                                                        
          THE MASS FLUX EQUILIBRIUM RESPONSE WAS LINEAR IN THIS INCREMENT

 MAXIMUM NON-PRESCRIBED INCREMENT IN NORMALIZED CONCENTRATION IS   0.102    

 ITERATION SUMMARY FOR THE INCREMENT:   1 TOTAL ITERATIONS, OF WHICH
   0 ARE SEVERE DISCONTINUITY ITERATIONS AND  1 ARE EQUILIBRIUM ITERATIONS.

 TIME INCREMENT COMPLETED   100.    ,  FRACTION OF STEP COMPLETED  0.231    
 STEP TIME COMPLETED       2.310E+04,  TOTAL TIME COMPLETED        2.310E+04


  INCREMENT   407 STARTS. ATTEMPT NUMBER  1, TIME INCREMENT   100.    
 
	UNSYMMETRIC NEW DIRECT SPARSE SOLVER RUNNING ON
 	1 HOST x 1 MPI RANK PER HOST x 32 THREADS PER RANK
        NUMBER OF EQUATIONS:  17576
        NUMBER OF RHS:        1
        NUMBER OF FLOPS:      3.872e+09
        SOLVER ELAPSED TIME:  83ms

               CONVERGENCE CHECKS FOR EQUILIBRIUM ITERATION     1


 AVERAGE MASS FLUX                  1.126E-05   TIME AVG. MASS FLUX   2.125E-05
 LARGEST RESIDUAL MASS FLUX         1.077E-18   AT NODE       8821   DOF 11
   INSTANCE: CUBOID-1                                                                        
 LARGEST INCREMENT OF CONCENT.      0.102       AT NODE        312   DOF 11
   INSTANCE: CUBOID-1                                                                        
 LARGEST CORRECTION TO CONCENT.    -5.597E-04   AT NODE        209   DOF 11
   INSTANCE: CUBOID-1                                                                        
          THE MASS FLUX EQUILIBRIUM RESPONSE WAS LINEAR IN THIS INCREMENT

 MAXIMUM NON-PRESCRIBED INCREMENT IN NORMALIZED CONCENTRATION IS   0.102    

 ITERATION SUMMARY FOR THE INCREMENT:   1 TOTAL ITERATIONS, OF WHICH
   0 ARE SEVERE DISCONTINUITY ITERATIONS AND  1 ARE EQUILIBRIUM ITERATIONS.

 TIME INCREMENT COMPLETED   100.    ,  FRACTION OF STEP COMPLETED  0.232    
 STEP TIME COMPLETED       2.320E+04,  TOTAL TIME COMPLETED        2.320E+04


  INCREMENT   408 STARTS. ATTEMPT NUMBER  1, TIME INCREMENT   100.    
 
	UNSYMMETRIC NEW DIRECT SPARSE SOLVER RUNNING ON
 	1 HOST x 1 MPI RANK PER HOST x 32 THREADS PER RANK
        NUMBER OF EQUATIONS:  17576
        NUMBER OF RHS:        1
        NUMBER OF FLOPS:      3.872e+09
        SOLVER ELAPSED TIME:  81ms

               CONVERGENCE CHECKS FOR EQUILIBRIUM ITERATION     1


 AVERAGE MASS FLUX                  1.127E-05   TIME AVG. MASS FLUX   2.122E-05
 LARGEST RESIDUAL MASS FLUX        -1.044E-18   AT NODE      10515   DOF 11
   INSTANCE: CUBOID-1                                                                        
 LARGEST INCREMENT OF CONCENT.      0.101       AT NODE        312   DOF 11
   INSTANCE: CUBOID-1                                                                        
 LARGEST CORRECTION TO CONCENT.    -5.551E-04   AT NODE        209   DOF 11
   INSTANCE: CUBOID-1                                                                        
          THE MASS FLUX EQUILIBRIUM RESPONSE WAS LINEAR IN THIS INCREMENT

 MAXIMUM NON-PRESCRIBED INCREMENT IN NORMALIZED CONCENTRATION IS   0.101    

 ITERATION SUMMARY FOR THE INCREMENT:   1 TOTAL ITERATIONS, OF WHICH
   0 ARE SEVERE DISCONTINUITY ITERATIONS AND  1 ARE EQUILIBRIUM ITERATIONS.

 TIME INCREMENT COMPLETED   100.    ,  FRACTION OF STEP COMPLETED  0.233    
 STEP TIME COMPLETED       2.330E+04,  TOTAL TIME COMPLETED        2.330E+04


  INCREMENT   409 STARTS. ATTEMPT NUMBER  1, TIME INCREMENT   100.    
 
	UNSYMMETRIC NEW DIRECT SPARSE SOLVER RUNNING ON
 	1 HOST x 1 MPI RANK PER HOST x 32 THREADS PER RANK
        NUMBER OF EQUATIONS:  17576
        NUMBER OF RHS:        1
        NUMBER OF FLOPS:      3.872e+09
        SOLVER ELAPSED TIME:  83ms

               CONVERGENCE CHECKS FOR EQUILIBRIUM ITERATION     1


 AVERAGE MASS FLUX                  1.127E-05   TIME AVG. MASS FLUX   2.120E-05
 LARGEST RESIDUAL MASS FLUX         1.071E-18   AT NODE       9835   DOF 11
   INSTANCE: CUBOID-1                                                                        
 LARGEST INCREMENT OF CONCENT.      0.101       AT NODE        312   DOF 11
   INSTANCE: CUBOID-1                                                                        
 LARGEST CORRECTION TO CONCENT.    -5.505E-04   AT NODE        209   DOF 11
   INSTANCE: CUBOID-1                                                                        
          THE MASS FLUX EQUILIBRIUM RESPONSE WAS LINEAR IN THIS INCREMENT

 MAXIMUM NON-PRESCRIBED INCREMENT IN NORMALIZED CONCENTRATION IS   0.101    

 ITERATION SUMMARY FOR THE INCREMENT:   1 TOTAL ITERATIONS, OF WHICH
   0 ARE SEVERE DISCONTINUITY ITERATIONS AND  1 ARE EQUILIBRIUM ITERATIONS.

 TIME INCREMENT COMPLETED   100.    ,  FRACTION OF STEP COMPLETED  0.234    
 STEP TIME COMPLETED       2.340E+04,  TOTAL TIME COMPLETED        2.340E+04


  INCREMENT   410 STARTS. ATTEMPT NUMBER  1, TIME INCREMENT   100.    
 
	UNSYMMETRIC NEW DIRECT SPARSE SOLVER RUNNING ON
 	1 HOST x 1 MPI RANK PER HOST x 32 THREADS PER RANK
        NUMBER OF EQUATIONS:  17576
        NUMBER OF RHS:        1
        NUMBER OF FLOPS:      3.872e+09
        SOLVER ELAPSED TIME:  80ms

               CONVERGENCE CHECKS FOR EQUILIBRIUM ITERATION     1


 AVERAGE MASS FLUX                  1.128E-05   TIME AVG. MASS FLUX   2.118E-05
 LARGEST RESIDUAL MASS FLUX        -1.105E-18   AT NODE      11190   DOF 11
   INSTANCE: CUBOID-1                                                                        
 LARGEST INCREMENT OF CONCENT.      0.101       AT NODE        312   DOF 11
   INSTANCE: CUBOID-1                                                                        
 LARGEST CORRECTION TO CONCENT.    -5.460E-04   AT NODE        209   DOF 11
   INSTANCE: CUBOID-1                                                                        
          THE MASS FLUX EQUILIBRIUM RESPONSE WAS LINEAR IN THIS INCREMENT

 MAXIMUM NON-PRESCRIBED INCREMENT IN NORMALIZED CONCENTRATION IS   0.101    

 ITERATION SUMMARY FOR THE INCREMENT:   1 TOTAL ITERATIONS, OF WHICH
   0 ARE SEVERE DISCONTINUITY ITERATIONS AND  1 ARE EQUILIBRIUM ITERATIONS.

 TIME INCREMENT COMPLETED   100.    ,  FRACTION OF STEP COMPLETED  0.235    
 STEP TIME COMPLETED       2.350E+04,  TOTAL TIME COMPLETED        2.350E+04


  INCREMENT   411 STARTS. ATTEMPT NUMBER  1, TIME INCREMENT   100.    
 
	UNSYMMETRIC NEW DIRECT SPARSE SOLVER RUNNING ON
 	1 HOST x 1 MPI RANK PER HOST x 32 THREADS PER RANK
        NUMBER OF EQUATIONS:  17576
        NUMBER OF RHS:        1
        NUMBER OF FLOPS:      3.872e+09
        SOLVER ELAPSED TIME:  82ms

               CONVERGENCE CHECKS FOR EQUILIBRIUM ITERATION     1


 AVERAGE MASS FLUX                  1.128E-05   TIME AVG. MASS FLUX   2.115E-05
 LARGEST RESIDUAL MASS FLUX        -1.030E-18   AT NODE       9614   DOF 11
   INSTANCE: CUBOID-1                                                                        
 LARGEST INCREMENT OF CONCENT.      0.100       AT NODE        312   DOF 11
   INSTANCE: CUBOID-1                                                                        
 LARGEST CORRECTION TO CONCENT.    -5.416E-04   AT NODE        209   DOF 11
   INSTANCE: CUBOID-1                                                                        
          THE MASS FLUX EQUILIBRIUM RESPONSE WAS LINEAR IN THIS INCREMENT

 MAXIMUM NON-PRESCRIBED INCREMENT IN NORMALIZED CONCENTRATION IS   0.100    

 ITERATION SUMMARY FOR THE INCREMENT:   1 TOTAL ITERATIONS, OF WHICH
   0 ARE SEVERE DISCONTINUITY ITERATIONS AND  1 ARE EQUILIBRIUM ITERATIONS.

 TIME INCREMENT COMPLETED   100.    ,  FRACTION OF STEP COMPLETED  0.236    
 STEP TIME COMPLETED       2.360E+04,  TOTAL TIME COMPLETED        2.360E+04


  INCREMENT   412 STARTS. ATTEMPT NUMBER  1, TIME INCREMENT   100.    
 
	UNSYMMETRIC NEW DIRECT SPARSE SOLVER RUNNING ON
 	1 HOST x 1 MPI RANK PER HOST x 32 THREADS PER RANK
        NUMBER OF EQUATIONS:  17576
        NUMBER OF RHS:        1
        NUMBER OF FLOPS:      3.872e+09
        SOLVER ELAPSED TIME:  81ms

               CONVERGENCE CHECKS FOR EQUILIBRIUM ITERATION     1


 AVERAGE MASS FLUX                  1.129E-05   TIME AVG. MASS FLUX   2.113E-05
 LARGEST RESIDUAL MASS FLUX        -1.077E-18   AT NODE      13267   DOF 11
   INSTANCE: CUBOID-1                                                                        
 LARGEST INCREMENT OF CONCENT.      0.100       AT NODE        312   DOF 11
   INSTANCE: CUBOID-1                                                                        
 LARGEST CORRECTION TO CONCENT.    -5.372E-04   AT NODE        209   DOF 11
   INSTANCE: CUBOID-1                                                                        
          THE MASS FLUX EQUILIBRIUM RESPONSE WAS LINEAR IN THIS INCREMENT

 MAXIMUM NON-PRESCRIBED INCREMENT IN NORMALIZED CONCENTRATION IS   0.100    


                    STEADY STATE CONDITION HAS BEEN REACHED
                    THE LARGEST NORMALIZED CONCENTRATION CHANGE PER UNIT TIME 
                    DURING THIS INCREMENT WAS   9.962E-04

 ITERATION SUMMARY FOR THE INCREMENT:   1 TOTAL ITERATIONS, OF WHICH
   0 ARE SEVERE DISCONTINUITY ITERATIONS AND  1 ARE EQUILIBRIUM ITERATIONS.

 TIME INCREMENT COMPLETED   100.    ,  FRACTION OF STEP COMPLETED  0.237    
 STEP TIME COMPLETED       2.370E+04,  TOTAL TIME COMPLETED        2.370E+04


          THE ANALYSIS HAS BEEN COMPLETED



     ANALYSIS SUMMARY:
     TOTAL OF        412  INCREMENTS
                       1  CUTBACKS IN AUTOMATIC INCREMENTATION
                     413  ITERATIONS INCLUDING CONTACT ITERATIONS IF PRESENT
                     413  PASSES THROUGH THE EQUATION SOLVER OF WHICH 
                     413  INVOLVE MATRIX DECOMPOSITION, INCLUDING
                       0  DECOMPOSITION(S) OF THE MASS MATRIX
                       1  REORDERING OF EQUATIONS TO MINIMIZE WAVEFRONT
                       0  ADDITIONAL RESIDUAL EVALUATIONS FOR LINE SEARCHES
                       0  ADDITIONAL OPERATOR EVALUATIONS FOR LINE SEARCHES
                       1  WARNING MESSAGES DURING USER INPUT PROCESSING
                       0  WARNING MESSAGES DURING ANALYSIS
                       0  ANALYSIS WARNINGS ARE NUMERICAL PROBLEM MESSAGES
                       0  ANALYSIS WARNINGS ARE NEGATIVE EIGENVALUE MESSAGES
                       0  ERROR MESSAGES



     JOB TIME SUMMARY
       USER TIME (SEC)      =     1.29E+03
       SYSTEM TIME (SEC)    =     1.68E+02
       TOTAL CPU TIME (SEC) =     1.46E+03
       WALLCLOCK TIME (SEC) =          143
       MEMORY PEAK (GB)     =            0
