 Abaqus/Standard 2024                  DATE 09-Apr-2025 TIME 11:36:08
 SUMMARY OF JOB INFORMATION:
 STEP  INC ATT SEVERE EQUIL TOTAL  TOTAL      STEP       INC OF       DOF    IF
               DISCON ITERS ITERS  TIME/    TIME/LPF    TIME/LPF    MONITOR RIKS
               ITERS               FREQ
   1     1   1U    0     1     1  0.00       0.00       10.00     
   1     1   2     0     1     1  2.85       2.85       2.854     
   1     2   1     0     1     1  5.71       5.71       2.854     
   1     3   1     0     1     1  8.56       8.56       2.854     
   1     4   1     0     1     1  11.4       11.4       2.854     
   1     5   1     0     1     1  14.3       14.3       2.854     
   1     6   1     0     1     1  17.1       17.1       2.854     
   1     7   1     0     1     1  20.0       20.0       2.854     
   1     8   1     0     1     1  22.8       22.8       2.854     
   1     9   1     0     1     1  25.7       25.7       2.854     
