1

   Abaqus 2024                                  Date 09-Apr-2025   Time 11:36:05
   For use by RWTH AACHEN UNIVERSITY under license from Dassault Systemes or its subsidiary.

 Diffusion analysis with flux extraction                                         
                                                                                 
 STEP    1     INCREMENT     1     STEP TIME    0.00    


                        S T E P       1     T R A N S I E N T   M A S S   D I F F U S I O N


                                                                                          

     AUTOMATIC TIME CONTROL WITH -
          A SUGGESTED INITIAL TIME INCREMENT OF                 10.0    
          AND A TOTAL TIME PERIOD OF                           1.000E+05
          THE MINIMUM TIME INCREMENT ALLOWED IS                1.000E-05
          THE MAXIMUM TIME INCREMENT ALLOWED IS                 100.    

     THE SIZE OF THE TIME INCREMENT IS CONTROLLED BY -
          THE NORMALIZED CONCENTRATION CHANGE PER INCREMENT NOT EXCEEDING   0.800    

          THE ANALYSIS WILL TERMINATE IF THE NORMALIZED
          CONCENTRATION CHANGE RATE IN AN INCREMENT IS LESS THAN             1.000E-04

 CONVERGENCE TOLERANCE PARAMETERS FOR MASS FLUX
     CRITERION FOR RESIDUAL MASS FLUX FOR A NONLINEAR PROBLEM          5.000E-03
     CRITERION FOR CONCENT. CORRECTION IN A NONLINEAR PROBLEM          1.000E-02
     INITIAL VALUE OF TIME AVERAGE MASS FLUX                           1.000E-02
     AVERAGE MASS FLUX IS TIME AVERAGE MASS FLUX
     ALTERNATE CRIT. FOR RESIDUAL MASS FLUX FOR A NONLINEAR PROBLEM    2.000E-02
     CRITERION FOR ZERO MASS FLUX RELATIVE TO TIME AVRG. MASS FLUX     1.000E-05
     CRITERION FOR RESIDUAL MASS FLUX WHEN THERE IS ZERO FLUX          1.000E-05
     CRITERION FOR CONCENT. CORRECTION WHEN THERE IS ZERO FLUX         1.000E-03
     CRITERION FOR RESIDUAL MASS FLUX FOR A LINEAR INCREMENT           1.000E-08
     FIELD CONVERSION RATIO                                             1.00    
     CRITERION FOR ZERO MASS FLUX REL. TO TIME AVRG. MAX. MASS FLUX    1.000E-05

     VOLUMETRIC STRAIN COMPATIBILITY TOLERANCE FOR HYBRID SOLIDS       1.000E-05
     AXIAL STRAIN COMPATIBILITY TOLERANCE FOR HYBRID BEAMS             1.000E-05
     TRANS. SHEAR STRAIN COMPATIBILITY TOLERANCE FOR HYBRID BEAMS      1.000E-05
     SOFT CONTACT CONSTRAINT COMPATIBILITY TOLERANCE FOR P>P0          5.000E-03
     SOFT CONTACT CONSTRAINT COMPATIBILITY TOLERANCE FOR P=0.0         0.100    
     CONTACT FORCE ERROR TOLERANCE FOR CONVERT SDI=YES                 1.00    
     DISPLACEMENT COMPATIBILITY TOLERANCE FOR DCOUP ELEMENTS           1.000E-05
     ROTATION COMPATIBILITY TOLERANCE FOR DCOUP ELEMENTS               1.000E-05

 EQUILIBRIUM WILL BE CHECKED FOR SEVERE DISCONTINUITY ITERATIONS

 TIME INCREMENTATION CONTROL PARAMETERS:
     FIRST EQUILIBRIUM ITERATION FOR CONSECUTIVE DIVERGENCE CHECK              4
     EQUILIBRIUM ITERATION AT WHICH LOG. CONVERGENCE RATE CHECK BEGINS         8
     EQUILIBRIUM ITERATION AFTER WHICH ALTERNATE RESIDUAL IS USED              9
     MAXIMUM EQUILIBRIUM ITERATIONS ALLOWED                                   16
     EQUILIBRIUM ITERATION COUNT FOR CUT-BACK IN NEXT INCREMENT               10
     MAXIMUM EQUILIB. ITERS IN TWO INCREMENTS FOR TIME INCREMENT INCREASE      4
     MAXIMUM ITERATIONS FOR SEVERE DISCONTINUITIES                            50
     MAXIMUM ATTEMPTS ALLOWED IN AN INCREMENT                                  5
     MAXIMUM DISCON. ITERS IN TWO INCREMENTS FOR TIME INCREMENT INCREASE      50
     MAXIMUM CONTACT AUGMENTATIONS FOR *SURFACE BEHAVIOR,AUGMENTED LAGRANGE   50
     CONSECUTIVE INCS MEETING TIME INTEG. TOL. FOR TIME INC. INCREASE          3
     CUT-BACK FACTOR AFTER DIVERGENCE                                 0.2500    
     CUT-BACK FACTOR FOR TOO SLOW CONVERGENCE                         0.5000    
     CUT-BACK FACTOR AFTER TOO MANY EQUILIBRIUM ITERATIONS            0.7500    
     CUT-BACK FACTOR AFTER TOO MANY SEVERE DISCONTINUITY ITERATIONS   0.2500    
     CUT-BACK FACTOR AFTER PROBLEMS IN ELEMENT ASSEMBLY               0.2500    
     INCREASE FACTOR AFTER TWO INCREMENTS THAT CONVERGE QUICKLY        1.500    
     MAX. TIME INCREMENT INCREASE FACTOR ALLOWED                       1.500    
     MAX. TIME INCREMENT INCREASE FACTOR ALLOWED (DYNAMICS)            1.250    
     MAX. TIME INCREMENT INCREASE FACTOR ALLOWED (DIFFUSION)           2.000    
     MINIMUM TIME INCREMENT RATIO FOR EXTRAPOLATION TO OCCUR          0.1000    
     CUT-BACK FACTOR WHEN TIME INTEGRATION ACCURACY TOL. EXCEEDED     0.8500    
     MAX. RATIO OF TIME INTEG. MEASURE TO TOL. FOR TIME INC. INCREASE 0.7500    
     INCREASE FACTOR FOR TIME INCREMENT WHEN POSSIBLE                 0.8000    
     MIN. TIME INC. INCREASE FACTOR IN LINEAR TRANSIENT PROBLEMS      0.9500    
     MAX. RATIO OF TIME INCREMENT TO STABILITY LIMIT                   1.000    
     FRACTION OF STABILITY LIMIT FOR NEW TIME INCREMENT               0.9500    
     TIME INCREMENT INCREASE FACTOR BEFORE A TIME POINT                1.000    
     GLOBAL STABILIZATION CONTROL IS NOT USED

          PRINT OF INCREMENT NUMBER, TIME, ETC., EVERY    1  INCREMENTS

     THE MAXIMUM NUMBER OF INCREMENTS IN THIS STEP IS                  100000

          UNSYMMETRIC MATRIX STORAGE AND SOLUTION WILL BE USED

     LINEAR EXTRAPOLATION WILL BE USED

     CHARACTERISTIC ELEMENT LENGTH     0.200    

     DETAILS REGARDING ACTUAL SOLUTION WAVEFRONT REQUESTED

     DETAILED OUTPUT OF DIAGNOSTICS TO DATABASE REQUESTED

     PRINT OF INCREMENT NUMBER, TIME, ETC., TO THE MESSAGE FILE EVERY     1  INCREMENTS

     COLLECTING MODEL CONSTRAINT INFORMATION FOR OVERCONSTRAINT CHECKS

     COLLECTING STEP CONSTRAINT INFORMATION FOR OVERCONSTRAINT CHECKS


  INCREMENT     1 STARTS. ATTEMPT NUMBER  1, TIME INCREMENT   10.0    
 
	UNSYMMETRIC NEW DIRECT SPARSE SOLVER RUNNING ON
 	1 HOST x 1 MPI RANK PER HOST x 1 THREAD PER RANK
        NUMBER OF EQUATIONS:  16352
        NUMBER OF RHS:        1
        NUMBER OF FLOPS:      8.448e+09
        SOLVER ELAPSED TIME:  733ms

               CONVERGENCE CHECKS FOR EQUILIBRIUM ITERATION     1


 AVERAGE MASS FLUX                  1.100E-04   TIME AVG. MASS FLUX   1.100E-04
 LARGEST RESIDUAL MASS FLUX         2.982E-18   AT NODE       4084   DOF 11
   INSTANCE: CUBOID-1                                                                        
 LARGEST INCREMENT OF CONCENT.       100.       AT NODE          1   DOF 11
   INSTANCE: CUBOID-1                                                                        
 LARGEST CORRECTION TO CONCENT.      100.       AT NODE          1   DOF 11
   INSTANCE: CUBOID-1                                                                        
          THE MASS FLUX EQUILIBRIUM RESPONSE WAS LINEAR IN THIS INCREMENT

 MAXIMUM NON-PRESCRIBED INCREMENT IN NORMALIZED CONCENTRATION IS    2.38    
 

 ***NOTE: THE TIME INTEGRATION ACCURACY TOLERANCE HAS BEEN EXCEEDED.


  INCREMENT     1 STARTS. ATTEMPT NUMBER  2, TIME INCREMENT   2.85    
 
	UNSYMMETRIC NEW DIRECT SPARSE SOLVER RUNNING ON
 	1 HOST x 1 MPI RANK PER HOST x 1 THREAD PER RANK
        NUMBER OF EQUATIONS:  16352
        NUMBER OF RHS:        1
        NUMBER OF FLOPS:      8.448e+09
        SOLVER ELAPSED TIME:  731ms

               CONVERGENCE CHECKS FOR EQUILIBRIUM ITERATION     1


 AVERAGE MASS FLUX                  3.603E-04   TIME AVG. MASS FLUX   3.603E-04
 LARGEST RESIDUAL MASS FLUX         1.789E-18   AT NODE       6117   DOF 11
   INSTANCE: CUBOID-1                                                                        
 LARGEST INCREMENT OF CONCENT.       100.       AT NODE          1   DOF 11
   INSTANCE: CUBOID-1                                                                        
 LARGEST CORRECTION TO CONCENT.      100.       AT NODE          1   DOF 11
   INSTANCE: CUBOID-1                                                                        
          THE MASS FLUX EQUILIBRIUM RESPONSE WAS LINEAR IN THIS INCREMENT

 MAXIMUM NON-PRESCRIBED INCREMENT IN NORMALIZED CONCENTRATION IS   0.704    

 ITERATION SUMMARY FOR THE INCREMENT:   1 TOTAL ITERATIONS, OF WHICH
   0 ARE SEVERE DISCONTINUITY ITERATIONS AND  1 ARE EQUILIBRIUM ITERATIONS.

 TIME INCREMENT COMPLETED   2.85    ,  FRACTION OF STEP COMPLETED  2.854E-05
 STEP TIME COMPLETED        2.85    ,  TOTAL TIME COMPLETED         2.85    


  INCREMENT     2 STARTS. ATTEMPT NUMBER  1, TIME INCREMENT   2.85    
 
	UNSYMMETRIC NEW DIRECT SPARSE SOLVER RUNNING ON
 	1 HOST x 1 MPI RANK PER HOST x 1 THREAD PER RANK
        NUMBER OF EQUATIONS:  16352
        NUMBER OF RHS:        1
        NUMBER OF FLOPS:      8.448e+09
        SOLVER ELAPSED TIME:  733ms

               CONVERGENCE CHECKS FOR EQUILIBRIUM ITERATION     1


 AVERAGE MASS FLUX                  1.000E-05   TIME AVG. MASS FLUX   1.852E-04
 LARGEST RESIDUAL MASS FLUX         9.216E-19   AT NODE       4761   DOF 11
   INSTANCE: CUBOID-1                                                                        
 LARGEST INCREMENT OF CONCENT.      0.694       AT NODE       2736   DOF 11
   INSTANCE: CUBOID-1                                                                        
 LARGEST CORRECTION TO CONCENT.     -100.       AT NODE          1   DOF 11
   INSTANCE: CUBOID-1                                                                        
          THE MASS FLUX EQUILIBRIUM RESPONSE WAS LINEAR IN THIS INCREMENT

 MAXIMUM NON-PRESCRIBED INCREMENT IN NORMALIZED CONCENTRATION IS   0.694    

 ITERATION SUMMARY FOR THE INCREMENT:   1 TOTAL ITERATIONS, OF WHICH
   0 ARE SEVERE DISCONTINUITY ITERATIONS AND  1 ARE EQUILIBRIUM ITERATIONS.

 TIME INCREMENT COMPLETED   2.85    ,  FRACTION OF STEP COMPLETED  5.709E-05
 STEP TIME COMPLETED        5.71    ,  TOTAL TIME COMPLETED         5.71    


  INCREMENT     3 STARTS. ATTEMPT NUMBER  1, TIME INCREMENT   2.85    
 
	UNSYMMETRIC NEW DIRECT SPARSE SOLVER RUNNING ON
 	1 HOST x 1 MPI RANK PER HOST x 1 THREAD PER RANK
        NUMBER OF EQUATIONS:  16352
        NUMBER OF RHS:        1
        NUMBER OF FLOPS:      8.448e+09
        SOLVER ELAPSED TIME:  733ms

               CONVERGENCE CHECKS FOR EQUILIBRIUM ITERATION     1


 AVERAGE MASS FLUX                  1.000E-05   TIME AVG. MASS FLUX   1.268E-04
 LARGEST RESIDUAL MASS FLUX        -5.963E-19   AT NODE       4783   DOF 11
   INSTANCE: CUBOID-1                                                                        
 LARGEST INCREMENT OF CONCENT.      0.684       AT NODE       3412   DOF 11
   INSTANCE: CUBOID-1                                                                        
 LARGEST CORRECTION TO CONCENT.    -9.660E-03   AT NODE      14224   DOF 11
   INSTANCE: CUBOID-1                                                                        
          THE MASS FLUX EQUILIBRIUM RESPONSE WAS LINEAR IN THIS INCREMENT

 MAXIMUM NON-PRESCRIBED INCREMENT IN NORMALIZED CONCENTRATION IS   0.684    

 ITERATION SUMMARY FOR THE INCREMENT:   1 TOTAL ITERATIONS, OF WHICH
   0 ARE SEVERE DISCONTINUITY ITERATIONS AND  1 ARE EQUILIBRIUM ITERATIONS.

 TIME INCREMENT COMPLETED   2.85    ,  FRACTION OF STEP COMPLETED  8.563E-05
 STEP TIME COMPLETED        8.56    ,  TOTAL TIME COMPLETED         8.56    


  INCREMENT     4 STARTS. ATTEMPT NUMBER  1, TIME INCREMENT   2.85    
 
	UNSYMMETRIC NEW DIRECT SPARSE SOLVER RUNNING ON
 	1 HOST x 1 MPI RANK PER HOST x 1 THREAD PER RANK
        NUMBER OF EQUATIONS:  16352
        NUMBER OF RHS:        1
        NUMBER OF FLOPS:      8.448e+09
        SOLVER ELAPSED TIME:  732ms

               CONVERGENCE CHECKS FOR EQUILIBRIUM ITERATION     1


 AVERAGE MASS FLUX                  1.000E-05   TIME AVG. MASS FLUX   9.758E-05
 LARGEST RESIDUAL MASS FLUX         1.057E-18   AT NODE      14912   DOF 11
   INSTANCE: CUBOID-1                                                                        
 LARGEST INCREMENT OF CONCENT.      0.675       AT NODE       3412   DOF 11
   INSTANCE: CUBOID-1                                                                        
 LARGEST CORRECTION TO CONCENT.    -9.492E-03   AT NODE       4762   DOF 11
   INSTANCE: CUBOID-1                                                                        
          THE MASS FLUX EQUILIBRIUM RESPONSE WAS LINEAR IN THIS INCREMENT

 MAXIMUM NON-PRESCRIBED INCREMENT IN NORMALIZED CONCENTRATION IS   0.675    

 ITERATION SUMMARY FOR THE INCREMENT:   1 TOTAL ITERATIONS, OF WHICH
   0 ARE SEVERE DISCONTINUITY ITERATIONS AND  1 ARE EQUILIBRIUM ITERATIONS.

 TIME INCREMENT COMPLETED   2.85    ,  FRACTION OF STEP COMPLETED  1.142E-04
 STEP TIME COMPLETED        11.4    ,  TOTAL TIME COMPLETED         11.4    


  INCREMENT     5 STARTS. ATTEMPT NUMBER  1, TIME INCREMENT   2.85    
 
	UNSYMMETRIC NEW DIRECT SPARSE SOLVER RUNNING ON
 	1 HOST x 1 MPI RANK PER HOST x 1 THREAD PER RANK
        NUMBER OF EQUATIONS:  16352
        NUMBER OF RHS:        1
        NUMBER OF FLOPS:      8.448e+09
        SOLVER ELAPSED TIME:  731ms

               CONVERGENCE CHECKS FOR EQUILIBRIUM ITERATION     1


 AVERAGE MASS FLUX                  1.000E-05   TIME AVG. MASS FLUX   8.007E-05
 LARGEST RESIDUAL MASS FLUX         7.589E-19   AT NODE      12880   DOF 11
   INSTANCE: CUBOID-1                                                                        
 LARGEST INCREMENT OF CONCENT.      0.665       AT NODE       3412   DOF 11
   INSTANCE: CUBOID-1                                                                        
 LARGEST CORRECTION TO CONCENT.    -9.328E-03   AT NODE      12880   DOF 11
   INSTANCE: CUBOID-1                                                                        
          THE MASS FLUX EQUILIBRIUM RESPONSE WAS LINEAR IN THIS INCREMENT

 MAXIMUM NON-PRESCRIBED INCREMENT IN NORMALIZED CONCENTRATION IS   0.665    

 ITERATION SUMMARY FOR THE INCREMENT:   1 TOTAL ITERATIONS, OF WHICH
   0 ARE SEVERE DISCONTINUITY ITERATIONS AND  1 ARE EQUILIBRIUM ITERATIONS.

 TIME INCREMENT COMPLETED   2.85    ,  FRACTION OF STEP COMPLETED  1.427E-04
 STEP TIME COMPLETED        14.3    ,  TOTAL TIME COMPLETED         14.3    


  INCREMENT     6 STARTS. ATTEMPT NUMBER  1, TIME INCREMENT   2.85    
 
	UNSYMMETRIC NEW DIRECT SPARSE SOLVER RUNNING ON
 	1 HOST x 1 MPI RANK PER HOST x 1 THREAD PER RANK
        NUMBER OF EQUATIONS:  16352
        NUMBER OF RHS:        1
        NUMBER OF FLOPS:      8.448e+09
        SOLVER ELAPSED TIME:  732ms

               CONVERGENCE CHECKS FOR EQUILIBRIUM ITERATION     1


 AVERAGE MASS FLUX                  1.000E-05   TIME AVG. MASS FLUX   6.839E-05
 LARGEST RESIDUAL MASS FLUX        -8.132E-19   AT NODE       5440   DOF 11
   INSTANCE: CUBOID-1                                                                        
 LARGEST INCREMENT OF CONCENT.      0.656       AT NODE       3412   DOF 11
   INSTANCE: CUBOID-1                                                                        
 LARGEST CORRECTION TO CONCENT.    -9.166E-03   AT NODE       6117   DOF 11
   INSTANCE: CUBOID-1                                                                        
          THE MASS FLUX EQUILIBRIUM RESPONSE WAS LINEAR IN THIS INCREMENT

 MAXIMUM NON-PRESCRIBED INCREMENT IN NORMALIZED CONCENTRATION IS   0.656    

 ITERATION SUMMARY FOR THE INCREMENT:   1 TOTAL ITERATIONS, OF WHICH
   0 ARE SEVERE DISCONTINUITY ITERATIONS AND  1 ARE EQUILIBRIUM ITERATIONS.

 TIME INCREMENT COMPLETED   2.85    ,  FRACTION OF STEP COMPLETED  1.713E-04
 STEP TIME COMPLETED        17.1    ,  TOTAL TIME COMPLETED         17.1    


  INCREMENT     7 STARTS. ATTEMPT NUMBER  1, TIME INCREMENT   2.85    
 
	UNSYMMETRIC NEW DIRECT SPARSE SOLVER RUNNING ON
 	1 HOST x 1 MPI RANK PER HOST x 1 THREAD PER RANK
        NUMBER OF EQUATIONS:  16352
        NUMBER OF RHS:        1
        NUMBER OF FLOPS:      8.448e+09
        SOLVER ELAPSED TIME:  731ms

               CONVERGENCE CHECKS FOR EQUILIBRIUM ITERATION     1


 AVERAGE MASS FLUX                  1.000E-05   TIME AVG. MASS FLUX   6.005E-05
 LARGEST RESIDUAL MASS FLUX         1.220E-18   AT NODE        727   DOF 11
   INSTANCE: CUBOID-1                                                                        
 LARGEST INCREMENT OF CONCENT.      0.647       AT NODE       2736   DOF 11
   INSTANCE: CUBOID-1                                                                        
 LARGEST CORRECTION TO CONCENT.    -9.008E-03   AT NODE      14244   DOF 11
   INSTANCE: CUBOID-1                                                                        
          THE MASS FLUX EQUILIBRIUM RESPONSE WAS LINEAR IN THIS INCREMENT

 MAXIMUM NON-PRESCRIBED INCREMENT IN NORMALIZED CONCENTRATION IS   0.647    

 ITERATION SUMMARY FOR THE INCREMENT:   1 TOTAL ITERATIONS, OF WHICH
   0 ARE SEVERE DISCONTINUITY ITERATIONS AND  1 ARE EQUILIBRIUM ITERATIONS.

 TIME INCREMENT COMPLETED   2.85    ,  FRACTION OF STEP COMPLETED  1.998E-04
 STEP TIME COMPLETED        20.0    ,  TOTAL TIME COMPLETED         20.0    


  INCREMENT     8 STARTS. ATTEMPT NUMBER  1, TIME INCREMENT   2.85    
 
	UNSYMMETRIC NEW DIRECT SPARSE SOLVER RUNNING ON
 	1 HOST x 1 MPI RANK PER HOST x 1 THREAD PER RANK
        NUMBER OF EQUATIONS:  16352
        NUMBER OF RHS:        1
        NUMBER OF FLOPS:      8.448e+09
        SOLVER ELAPSED TIME:  731ms

               CONVERGENCE CHECKS FOR EQUILIBRIUM ITERATION     1


 AVERAGE MASS FLUX                  1.000E-05   TIME AVG. MASS FLUX   5.379E-05
 LARGEST RESIDUAL MASS FLUX        -1.220E-18   AT NODE       3412   DOF 11
   INSTANCE: CUBOID-1                                                                        
 LARGEST INCREMENT OF CONCENT.      0.638       AT NODE       3412   DOF 11
   INSTANCE: CUBOID-1                                                                        
 LARGEST CORRECTION TO CONCENT.    -8.853E-03   AT NODE       6117   DOF 11
   INSTANCE: CUBOID-1                                                                        
          THE MASS FLUX EQUILIBRIUM RESPONSE WAS LINEAR IN THIS INCREMENT

 MAXIMUM NON-PRESCRIBED INCREMENT IN NORMALIZED CONCENTRATION IS   0.638    

 ITERATION SUMMARY FOR THE INCREMENT:   1 TOTAL ITERATIONS, OF WHICH
   0 ARE SEVERE DISCONTINUITY ITERATIONS AND  1 ARE EQUILIBRIUM ITERATIONS.

 TIME INCREMENT COMPLETED   2.85    ,  FRACTION OF STEP COMPLETED  2.284E-04
 STEP TIME COMPLETED        22.8    ,  TOTAL TIME COMPLETED         22.8    


  INCREMENT     9 STARTS. ATTEMPT NUMBER  1, TIME INCREMENT   2.85    
 
	UNSYMMETRIC NEW DIRECT SPARSE SOLVER RUNNING ON
 	1 HOST x 1 MPI RANK PER HOST x 1 THREAD PER RANK
        NUMBER OF EQUATIONS:  16352
        NUMBER OF RHS:        1
        NUMBER OF FLOPS:      8.448e+09
        SOLVER ELAPSED TIME:  732ms

               CONVERGENCE CHECKS FOR EQUILIBRIUM ITERATION     1


 AVERAGE MASS FLUX                  1.000E-05   TIME AVG. MASS FLUX   4.893E-05
 LARGEST RESIDUAL MASS FLUX        -1.220E-18   AT NODE       6801   DOF 11
   INSTANCE: CUBOID-1                                                                        
 LARGEST INCREMENT OF CONCENT.      0.630       AT NODE         32   DOF 11
   INSTANCE: CUBOID-1                                                                        
 LARGEST CORRECTION TO CONCENT.    -8.701E-03   AT NODE       3412   DOF 11
   INSTANCE: CUBOID-1                                                                        
          THE MASS FLUX EQUILIBRIUM RESPONSE WAS LINEAR IN THIS INCREMENT

 MAXIMUM NON-PRESCRIBED INCREMENT IN NORMALIZED CONCENTRATION IS   0.630    

 ITERATION SUMMARY FOR THE INCREMENT:   1 TOTAL ITERATIONS, OF WHICH
   0 ARE SEVERE DISCONTINUITY ITERATIONS AND  1 ARE EQUILIBRIUM ITERATIONS.

 TIME INCREMENT COMPLETED   2.85    ,  FRACTION OF STEP COMPLETED  2.569E-04
 STEP TIME COMPLETED        25.7    ,  TOTAL TIME COMPLETED         25.7    


  INCREMENT    10 STARTS. ATTEMPT NUMBER  1, TIME INCREMENT   2.85    
